
---------- Begin Simulation Statistics ----------
final_tick                                 2352035000                       # Number of ticks from beginning of simulation (restored from checkpoints and never reset)
host_inst_rate                                  21255                       # Simulator instruction rate (inst/s)
host_mem_usage                                1057996                       # Number of bytes of host memory used
host_op_rate                                    33232                       # Simulator op (including micro ops) rate (op/s)
host_seconds                                   354.07                       # Real time elapsed on the host
host_tick_rate                                6642862                       # Simulator tick rate (ticks/s)
sim_freq                                 1000000000000                       # Frequency of simulated ticks
sim_insts                                     7525769                       # Number of instructions simulated
sim_ops                                      11766569                       # Number of ops (including micro ops) simulated
sim_seconds                                  0.002352                       # Number of seconds simulated
sim_ticks                                  2352035000                       # Number of ticks simulated
system.cpu00.branchPred.BTBCorrect                  0                       # Number of correct BTB predictions (this stat may not work properly.
system.cpu00.branchPred.BTBHitPct            0.000000                       # BTB Hit Percentage
system.cpu00.branchPred.BTBHits                     0                       # Number of BTB hits
system.cpu00.branchPred.BTBLookups              43643                       # Number of BTB lookups
system.cpu00.branchPred.RASInCorrect                8                       # Number of incorrect RAS predictions.
system.cpu00.branchPred.condIncorrect            2270                       # Number of conditional branches incorrect
system.cpu00.branchPred.condPredicted           41304                       # Number of conditional branches predicted
system.cpu00.branchPred.indirectHits            17521                       # Number of indirect target hits.
system.cpu00.branchPred.indirectLookups         43643                       # Number of indirect predictor lookups.
system.cpu00.branchPred.indirectMisses          26122                       # Number of indirect misses.
system.cpu00.branchPred.lookups                 49208                       # Number of BP lookups
system.cpu00.branchPred.usedRAS                  3395                       # Number of times the RAS was used to get a target.
system.cpu00.branchPredindirectMispredicted         2018                       # Number of mispredicted indirect branches.
system.cpu00.cc_regfile_reads                  128934                       # number of cc regfile reads
system.cpu00.cc_regfile_writes                 170120                       # number of cc regfile writes
system.cpu00.commit.amos                            0                       # Number of atomic instructions committed
system.cpu00.commit.branchMispredicts            2369                       # The number of times a branch was mispredicted
system.cpu00.commit.branches                    23724                       # Number of branches committed
system.cpu00.commit.bw_lim_events               24660                       # number cycles where commit BW limit reached
system.cpu00.commit.commitNonSpecStalls           569                       # The number of times commit has been forced to stall to communicate backwards
system.cpu00.commit.commitSquashedInsts        334549                       # The number of squashed insts skipped by commit
system.cpu00.commit.committedInsts             197823                       # Number of instructions committed
system.cpu00.commit.committedOps               323745                       # Number of ops (including micro ops) committed
system.cpu00.commit.committed_per_cycle::samples      3219198                       # Number of insts commited each cycle
system.cpu00.commit.committed_per_cycle::mean     0.100567                       # Number of insts commited each cycle
system.cpu00.commit.committed_per_cycle::stdev     0.781200                       # Number of insts commited each cycle
system.cpu00.commit.committed_per_cycle::underflows            0      0.00%      0.00% # Number of insts commited each cycle
system.cpu00.commit.committed_per_cycle::0      3137602     97.47%     97.47% # Number of insts commited each cycle
system.cpu00.commit.committed_per_cycle::1        25922      0.81%     98.27% # Number of insts commited each cycle
system.cpu00.commit.committed_per_cycle::2        13511      0.42%     98.69% # Number of insts commited each cycle
system.cpu00.commit.committed_per_cycle::3         6723      0.21%     98.90% # Number of insts commited each cycle
system.cpu00.commit.committed_per_cycle::4         5387      0.17%     99.07% # Number of insts commited each cycle
system.cpu00.commit.committed_per_cycle::5         2649      0.08%     99.15% # Number of insts commited each cycle
system.cpu00.commit.committed_per_cycle::6          649      0.02%     99.17% # Number of insts commited each cycle
system.cpu00.commit.committed_per_cycle::7         2095      0.07%     99.23% # Number of insts commited each cycle
system.cpu00.commit.committed_per_cycle::8        24660      0.77%    100.00% # Number of insts commited each cycle
system.cpu00.commit.committed_per_cycle::overflows            0      0.00%    100.00% # Number of insts commited each cycle
system.cpu00.commit.committed_per_cycle::min_value            0                       # Number of insts commited each cycle
system.cpu00.commit.committed_per_cycle::max_value            8                       # Number of insts commited each cycle
system.cpu00.commit.committed_per_cycle::total      3219198                       # Number of insts commited each cycle
system.cpu00.commit.fp_insts                    62810                       # Number of committed floating point instructions.
system.cpu00.commit.function_calls               2080                       # Number of function calls committed.
system.cpu00.commit.int_insts                  283896                       # Number of committed integer instructions.
system.cpu00.commit.loads                       60809                       # Number of loads committed
system.cpu00.commit.membars                       322                       # Number of memory barriers committed
system.cpu00.commit.op_class_0::No_OpClass          374      0.12%      0.12% # Class of committed instruction
system.cpu00.commit.op_class_0::IntAlu         194351     60.03%     60.15% # Class of committed instruction
system.cpu00.commit.op_class_0::IntMult          3263      1.01%     61.16% # Class of committed instruction
system.cpu00.commit.op_class_0::IntDiv             21      0.01%     61.16% # Class of committed instruction
system.cpu00.commit.op_class_0::FloatAdd         9416      2.91%     64.07% # Class of committed instruction
system.cpu00.commit.op_class_0::FloatCmp            0      0.00%     64.07% # Class of committed instruction
system.cpu00.commit.op_class_0::FloatCvt            0      0.00%     64.07% # Class of committed instruction
system.cpu00.commit.op_class_0::FloatMult            0      0.00%     64.07% # Class of committed instruction
system.cpu00.commit.op_class_0::FloatMultAcc            0      0.00%     64.07% # Class of committed instruction
system.cpu00.commit.op_class_0::FloatDiv            0      0.00%     64.07% # Class of committed instruction
system.cpu00.commit.op_class_0::FloatMisc            0      0.00%     64.07% # Class of committed instruction
system.cpu00.commit.op_class_0::FloatSqrt            0      0.00%     64.07% # Class of committed instruction
system.cpu00.commit.op_class_0::SimdAdd            16      0.00%     64.08% # Class of committed instruction
system.cpu00.commit.op_class_0::SimdAddAcc            0      0.00%     64.08% # Class of committed instruction
system.cpu00.commit.op_class_0::SimdAlu         13424      4.15%     68.22% # Class of committed instruction
system.cpu00.commit.op_class_0::SimdCmp             0      0.00%     68.22% # Class of committed instruction
system.cpu00.commit.op_class_0::SimdCvt           342      0.11%     68.33% # Class of committed instruction
system.cpu00.commit.op_class_0::SimdMisc          393      0.12%     68.45% # Class of committed instruction
system.cpu00.commit.op_class_0::SimdMult            0      0.00%     68.45% # Class of committed instruction
system.cpu00.commit.op_class_0::SimdMultAcc            0      0.00%     68.45% # Class of committed instruction
system.cpu00.commit.op_class_0::SimdShift            0      0.00%     68.45% # Class of committed instruction
system.cpu00.commit.op_class_0::SimdShiftAcc            0      0.00%     68.45% # Class of committed instruction
system.cpu00.commit.op_class_0::SimdDiv             0      0.00%     68.45% # Class of committed instruction
system.cpu00.commit.op_class_0::SimdSqrt            0      0.00%     68.45% # Class of committed instruction
system.cpu00.commit.op_class_0::SimdFloatAdd         9375      2.90%     71.34% # Class of committed instruction
system.cpu00.commit.op_class_0::SimdFloatAlu            0      0.00%     71.34% # Class of committed instruction
system.cpu00.commit.op_class_0::SimdFloatCmp            0      0.00%     71.34% # Class of committed instruction
system.cpu00.commit.op_class_0::SimdFloatCvt         6282      1.94%     73.29% # Class of committed instruction
system.cpu00.commit.op_class_0::SimdFloatDiv           32      0.01%     73.30% # Class of committed instruction
system.cpu00.commit.op_class_0::SimdFloatMisc            0      0.00%     73.30% # Class of committed instruction
system.cpu00.commit.op_class_0::SimdFloatMult            0      0.00%     73.30% # Class of committed instruction
system.cpu00.commit.op_class_0::SimdFloatMultAcc            0      0.00%     73.30% # Class of committed instruction
system.cpu00.commit.op_class_0::SimdFloatSqrt            0      0.00%     73.30% # Class of committed instruction
system.cpu00.commit.op_class_0::SimdReduceAdd            0      0.00%     73.30% # Class of committed instruction
system.cpu00.commit.op_class_0::SimdReduceAlu            0      0.00%     73.30% # Class of committed instruction
system.cpu00.commit.op_class_0::SimdReduceCmp            0      0.00%     73.30% # Class of committed instruction
system.cpu00.commit.op_class_0::SimdFloatReduceAdd            0      0.00%     73.30% # Class of committed instruction
system.cpu00.commit.op_class_0::SimdFloatReduceCmp            0      0.00%     73.30% # Class of committed instruction
system.cpu00.commit.op_class_0::SimdAes             0      0.00%     73.30% # Class of committed instruction
system.cpu00.commit.op_class_0::SimdAesMix            0      0.00%     73.30% # Class of committed instruction
system.cpu00.commit.op_class_0::SimdSha1Hash            0      0.00%     73.30% # Class of committed instruction
system.cpu00.commit.op_class_0::SimdSha1Hash2            0      0.00%     73.30% # Class of committed instruction
system.cpu00.commit.op_class_0::SimdSha256Hash            0      0.00%     73.30% # Class of committed instruction
system.cpu00.commit.op_class_0::SimdSha256Hash2            0      0.00%     73.30% # Class of committed instruction
system.cpu00.commit.op_class_0::SimdShaSigma2            0      0.00%     73.30% # Class of committed instruction
system.cpu00.commit.op_class_0::SimdShaSigma3            0      0.00%     73.30% # Class of committed instruction
system.cpu00.commit.op_class_0::SimdPredAlu            0      0.00%     73.30% # Class of committed instruction
system.cpu00.commit.op_class_0::MemRead         44798     13.84%     87.13% # Class of committed instruction
system.cpu00.commit.op_class_0::MemWrite        18148      5.61%     92.74% # Class of committed instruction
system.cpu00.commit.op_class_0::FloatMemRead        16011      4.95%     97.68% # Class of committed instruction
system.cpu00.commit.op_class_0::FloatMemWrite         7499      2.32%    100.00% # Class of committed instruction
system.cpu00.commit.op_class_0::IprAccess            0      0.00%    100.00% # Class of committed instruction
system.cpu00.commit.op_class_0::InstPrefetch            0      0.00%    100.00% # Class of committed instruction
system.cpu00.commit.op_class_0::total          323745                       # Class of committed instruction
system.cpu00.commit.refs                        86456                       # Number of memory references committed
system.cpu00.commit.swp_count                       0                       # Number of s/w prefetches committed
system.cpu00.commit.vec_insts                       0                       # Number of committed Vector instructions.
system.cpu00.committedInsts                    197823                       # Number of Instructions Simulated
system.cpu00.committedOps                      323745                       # Number of Ops (including micro ops) Simulated
system.cpu00.cpi                            23.779191                       # CPI: Cycles Per Instruction
system.cpu00.cpi_total                      23.779191                       # CPI: Total CPI of All Threads
system.cpu00.decode.BlockedCycles             3107180                       # Number of cycles decode is blocked
system.cpu00.decode.DecodedInsts               708487                       # Number of instructions handled by decode
system.cpu00.decode.IdleCycles                  53869                       # Number of cycles decode is idle
system.cpu00.decode.RunCycles                   77891                       # Number of cycles decode is running
system.cpu00.decode.SquashCycles                 4625                       # Number of cycles decode is squashing
system.cpu00.decode.UnblockCycles               20229                       # Number of cycles decode is unblocking
system.cpu00.dtb.rdAccesses                    151810                       # TLB accesses on read requests
system.cpu00.dtb.rdMisses                         238                       # TLB misses on read requests
system.cpu00.dtb.wrAccesses                     38167                       # TLB accesses on write requests
system.cpu00.dtb.wrMisses                         106                       # TLB misses on write requests
system.cpu00.fetch.Branches                     49208                       # Number of branches that fetch encountered
system.cpu00.fetch.CacheLines                   56915                       # Number of cache lines fetched
system.cpu00.fetch.Cycles                     3152195                       # Number of cycles fetch has run and was not squashing or blocked
system.cpu00.fetch.IcacheSquashes                 973                       # Number of outstanding Icache misses that were squashed
system.cpu00.fetch.IcacheWaitRetryStallCycles        22747                       # Number of stall cycles due to full MSHR
system.cpu00.fetch.Insts                       531874                       # Number of instructions fetch has processed
system.cpu00.fetch.MiscStallCycles                107                       # Number of cycles fetch has spent waiting on interrupts, or bad addresses, or out of MSHRs
system.cpu00.fetch.PendingQuiesceStallCycles           12                       # Number of stall cycles due to pending quiesce instructions
system.cpu00.fetch.PendingTrapStallCycles          626                       # Number of stall cycles due to pending traps
system.cpu00.fetch.SquashCycles                  9250                       # Number of cycles fetch has spent squashing
system.cpu00.fetch.branchRate                0.010461                       # Number of branch fetches per cycle
system.cpu00.fetch.icacheStallCycles            83482                       # Number of cycles fetch is stalled on an Icache miss
system.cpu00.fetch.predictedBranches            20916                       # Number of branches that fetch has predicted taken
system.cpu00.fetch.rate                      0.113067                       # Number of inst fetches per cycle
system.cpu00.fetch.rateDist::samples          3263794                       # Number of instructions fetched each cycle (Total)
system.cpu00.fetch.rateDist::mean            0.253984                       # Number of instructions fetched each cycle (Total)
system.cpu00.fetch.rateDist::stdev           1.316735                       # Number of instructions fetched each cycle (Total)
system.cpu00.fetch.rateDist::underflows             0      0.00%      0.00% # Number of instructions fetched each cycle (Total)
system.cpu00.fetch.rateDist::0                3131187     95.94%     95.94% # Number of instructions fetched each cycle (Total)
system.cpu00.fetch.rateDist::1                   2020      0.06%     96.00% # Number of instructions fetched each cycle (Total)
system.cpu00.fetch.rateDist::2                  13389      0.41%     96.41% # Number of instructions fetched each cycle (Total)
system.cpu00.fetch.rateDist::3                  11718      0.36%     96.77% # Number of instructions fetched each cycle (Total)
system.cpu00.fetch.rateDist::4                   5820      0.18%     96.95% # Number of instructions fetched each cycle (Total)
system.cpu00.fetch.rateDist::5                  10229      0.31%     97.26% # Number of instructions fetched each cycle (Total)
system.cpu00.fetch.rateDist::6                   4459      0.14%     97.40% # Number of instructions fetched each cycle (Total)
system.cpu00.fetch.rateDist::7                  15956      0.49%     97.89% # Number of instructions fetched each cycle (Total)
system.cpu00.fetch.rateDist::8                  69016      2.11%    100.00% # Number of instructions fetched each cycle (Total)
system.cpu00.fetch.rateDist::overflows              0      0.00%    100.00% # Number of instructions fetched each cycle (Total)
system.cpu00.fetch.rateDist::min_value              0                       # Number of instructions fetched each cycle (Total)
system.cpu00.fetch.rateDist::max_value              8                       # Number of instructions fetched each cycle (Total)
system.cpu00.fetch.rateDist::total            3263794                       # Number of instructions fetched each cycle (Total)
system.cpu00.fp_regfile_reads                  125719                       # number of floating regfile reads
system.cpu00.fp_regfile_writes                 103707                       # number of floating regfile writes
system.cpu00.idleCycles                       1440277                       # Total number of cycles that the CPU has spent unscheduled due to idling
system.cpu00.iew.branchMispredicts               3182                       # Number of branch mispredicts detected at execute
system.cpu00.iew.exec_branches                  35345                       # Number of branches executed
system.cpu00.iew.exec_nop                           0                       # number of nop insts executed
system.cpu00.iew.exec_rate                   0.124185                       # Inst execution rate
system.cpu00.iew.exec_refs                     174657                       # number of memory reference insts executed
system.cpu00.iew.exec_stores                    38162                       # Number of stores executed
system.cpu00.iew.exec_swp                           0                       # number of swp insts executed
system.cpu00.iew.iewBlockCycles                102019                       # Number of cycles IEW is blocking
system.cpu00.iew.iewDispLoadInsts              140513                       # Number of dispatched load instructions
system.cpu00.iew.iewDispNonSpecInsts              545                       # Number of dispatched non-speculative instructions
system.cpu00.iew.iewDispSquashedInsts             146                       # Number of squashed instructions skipped by dispatch
system.cpu00.iew.iewDispStoreInsts              48239                       # Number of dispatched store instructions
system.cpu00.iew.iewDispatchedInsts            658380                       # Number of instructions dispatched to IQ
system.cpu00.iew.iewExecLoadInsts              136495                       # Number of load instructions executed
system.cpu00.iew.iewExecSquashedInsts            5640                       # Number of squashed instructions skipped in execute
system.cpu00.iew.iewExecutedInsts              584177                       # Number of executed instructions
system.cpu00.iew.iewIQFullEvents                  113                       # Number of times the IQ has become full, causing a stall
system.cpu00.iew.iewIdleCycles                      0                       # Number of cycles IEW is idle
system.cpu00.iew.iewLSQFullEvents             1366678                       # Number of times the LSQ has become full, causing a stall
system.cpu00.iew.iewSquashCycles                 4625                       # Number of cycles IEW is squashing
system.cpu00.iew.iewUnblockCycles             1368887                       # Number of cycles IEW is unblocking
system.cpu00.iew.lsq.thread0.blockedLoads            0                       # Number of blocked loads due to partial load-store forwarding
system.cpu00.iew.lsq.thread0.cacheBlocked          302                       # Number of times an access to memory failed due to the cache being blocked
system.cpu00.iew.lsq.thread0.forwLoads          20099                       # Number of loads that had data forwarded from stores
system.cpu00.iew.lsq.thread0.ignoredResponses           19                       # Number of memory responses ignored because the instruction is squashed
system.cpu00.iew.lsq.thread0.invAddrLoads            0                       # Number of loads ignored due to an invalid address
system.cpu00.iew.lsq.thread0.invAddrSwpfs            0                       # Number of software prefetches ignored due to an invalid address
system.cpu00.iew.lsq.thread0.memOrderViolation           75                       # Number of memory ordering violations
system.cpu00.iew.lsq.thread0.rescheduledLoads        12603                       # Number of loads that were rescheduled
system.cpu00.iew.lsq.thread0.squashedLoads        79704                       # Number of loads squashed
system.cpu00.iew.lsq.thread0.squashedStores        22592                       # Number of stores squashed
system.cpu00.iew.memOrderViolationEvents           75                       # Number of memory order violations
system.cpu00.iew.predictedNotTakenIncorrect         3035                       # Number of branches that were predicted not taken incorrectly
system.cpu00.iew.predictedTakenIncorrect          147                       # Number of branches that were predicted taken incorrectly
system.cpu00.iew.wb_consumers                  568600                       # num instructions consuming a value
system.cpu00.iew.wb_count                      554925                       # cumulative count of insts written-back
system.cpu00.iew.wb_fanout                   0.699441                       # average fanout of values written-back
system.cpu00.iew.wb_producers                  397702                       # num instructions producing a value
system.cpu00.iew.wb_rate                     0.117967                       # insts written-back per cycle
system.cpu00.iew.wb_sent                       570142                       # cumulative count of insts sent to commit
system.cpu00.int_regfile_reads                 845595                       # number of integer regfile reads
system.cpu00.int_regfile_writes                384907                       # number of integer regfile writes
system.cpu00.ipc                             0.042054                       # IPC: Instructions Per Cycle
system.cpu00.ipc_total                       0.042054                       # IPC: Total IPC of All Threads
system.cpu00.iq.FU_type_0::No_OpClass            1160      0.20%      0.20% # Type of FU issued
system.cpu00.iq.FU_type_0::IntAlu              327819     55.58%     55.78% # Type of FU issued
system.cpu00.iq.FU_type_0::IntMult               7681      1.30%     57.08% # Type of FU issued
system.cpu00.iq.FU_type_0::IntDiv                  24      0.00%     57.08% # Type of FU issued
system.cpu00.iq.FU_type_0::FloatAdd             26680      4.52%     61.61% # Type of FU issued
system.cpu00.iq.FU_type_0::FloatCmp                 0      0.00%     61.61% # Type of FU issued
system.cpu00.iq.FU_type_0::FloatCvt                 0      0.00%     61.61% # Type of FU issued
system.cpu00.iq.FU_type_0::FloatMult                0      0.00%     61.61% # Type of FU issued
system.cpu00.iq.FU_type_0::FloatMultAcc             0      0.00%     61.61% # Type of FU issued
system.cpu00.iq.FU_type_0::FloatDiv                 0      0.00%     61.61% # Type of FU issued
system.cpu00.iq.FU_type_0::FloatMisc                0      0.00%     61.61% # Type of FU issued
system.cpu00.iq.FU_type_0::FloatSqrt                0      0.00%     61.61% # Type of FU issued
system.cpu00.iq.FU_type_0::SimdAdd                 16      0.00%     61.61% # Type of FU issued
system.cpu00.iq.FU_type_0::SimdAddAcc               0      0.00%     61.61% # Type of FU issued
system.cpu00.iq.FU_type_0::SimdAlu              26887      4.56%     66.17% # Type of FU issued
system.cpu00.iq.FU_type_0::SimdCmp                  0      0.00%     66.17% # Type of FU issued
system.cpu00.iq.FU_type_0::SimdCvt                342      0.06%     66.23% # Type of FU issued
system.cpu00.iq.FU_type_0::SimdMisc               397      0.07%     66.29% # Type of FU issued
system.cpu00.iq.FU_type_0::SimdMult                 0      0.00%     66.29% # Type of FU issued
system.cpu00.iq.FU_type_0::SimdMultAcc              0      0.00%     66.29% # Type of FU issued
system.cpu00.iq.FU_type_0::SimdShift                0      0.00%     66.29% # Type of FU issued
system.cpu00.iq.FU_type_0::SimdShiftAcc             0      0.00%     66.29% # Type of FU issued
system.cpu00.iq.FU_type_0::SimdDiv                  0      0.00%     66.29% # Type of FU issued
system.cpu00.iq.FU_type_0::SimdSqrt                 0      0.00%     66.29% # Type of FU issued
system.cpu00.iq.FU_type_0::SimdFloatAdd         13847      2.35%     68.64% # Type of FU issued
system.cpu00.iq.FU_type_0::SimdFloatAlu             0      0.00%     68.64% # Type of FU issued
system.cpu00.iq.FU_type_0::SimdFloatCmp             0      0.00%     68.64% # Type of FU issued
system.cpu00.iq.FU_type_0::SimdFloatCvt          8642      1.47%     70.11% # Type of FU issued
system.cpu00.iq.FU_type_0::SimdFloatDiv            32      0.01%     70.11% # Type of FU issued
system.cpu00.iq.FU_type_0::SimdFloatMisc            0      0.00%     70.11% # Type of FU issued
system.cpu00.iq.FU_type_0::SimdFloatMult            0      0.00%     70.11% # Type of FU issued
system.cpu00.iq.FU_type_0::SimdFloatMultAcc            0      0.00%     70.11% # Type of FU issued
system.cpu00.iq.FU_type_0::SimdFloatSqrt            0      0.00%     70.11% # Type of FU issued
system.cpu00.iq.FU_type_0::SimdReduceAdd            0      0.00%     70.11% # Type of FU issued
system.cpu00.iq.FU_type_0::SimdReduceAlu            0      0.00%     70.11% # Type of FU issued
system.cpu00.iq.FU_type_0::SimdReduceCmp            0      0.00%     70.11% # Type of FU issued
system.cpu00.iq.FU_type_0::SimdFloatReduceAdd            0      0.00%     70.11% # Type of FU issued
system.cpu00.iq.FU_type_0::SimdFloatReduceCmp            0      0.00%     70.11% # Type of FU issued
system.cpu00.iq.FU_type_0::SimdAes                  0      0.00%     70.11% # Type of FU issued
system.cpu00.iq.FU_type_0::SimdAesMix               0      0.00%     70.11% # Type of FU issued
system.cpu00.iq.FU_type_0::SimdSha1Hash             0      0.00%     70.11% # Type of FU issued
system.cpu00.iq.FU_type_0::SimdSha1Hash2            0      0.00%     70.11% # Type of FU issued
system.cpu00.iq.FU_type_0::SimdSha256Hash            0      0.00%     70.11% # Type of FU issued
system.cpu00.iq.FU_type_0::SimdSha256Hash2            0      0.00%     70.11% # Type of FU issued
system.cpu00.iq.FU_type_0::SimdShaSigma2            0      0.00%     70.11% # Type of FU issued
system.cpu00.iq.FU_type_0::SimdShaSigma3            0      0.00%     70.11% # Type of FU issued
system.cpu00.iq.FU_type_0::SimdPredAlu              0      0.00%     70.11% # Type of FU issued
system.cpu00.iq.FU_type_0::MemRead              95429     16.18%     86.29% # Type of FU issued
system.cpu00.iq.FU_type_0::MemWrite             29056      4.93%     91.22% # Type of FU issued
system.cpu00.iq.FU_type_0::FloatMemRead         41990      7.12%     98.34% # Type of FU issued
system.cpu00.iq.FU_type_0::FloatMemWrite         9815      1.66%    100.00% # Type of FU issued
system.cpu00.iq.FU_type_0::IprAccess                0      0.00%    100.00% # Type of FU issued
system.cpu00.iq.FU_type_0::InstPrefetch             0      0.00%    100.00% # Type of FU issued
system.cpu00.iq.FU_type_0::total               589817                       # Type of FU issued
system.cpu00.iq.fp_alu_accesses                128821                       # Number of floating point alu accesses
system.cpu00.iq.fp_inst_queue_reads            257538                       # Number of floating instruction queue reads
system.cpu00.iq.fp_inst_queue_wakeup_accesses       113805                       # Number of floating instruction queue wakeup accesses
system.cpu00.iq.fp_inst_queue_writes           252262                       # Number of floating instruction queue writes
system.cpu00.iq.fu_busy_cnt                      5296                       # FU busy when requested
system.cpu00.iq.fu_busy_rate                 0.008979                       # FU busy rate (busy events/executed inst)
system.cpu00.iq.fu_full::No_OpClass                 0      0.00%      0.00% # attempts to use FU when none available
system.cpu00.iq.fu_full::IntAlu                  3326     62.80%     62.80% # attempts to use FU when none available
system.cpu00.iq.fu_full::IntMult                    0      0.00%     62.80% # attempts to use FU when none available
system.cpu00.iq.fu_full::IntDiv                     0      0.00%     62.80% # attempts to use FU when none available
system.cpu00.iq.fu_full::FloatAdd                   0      0.00%     62.80% # attempts to use FU when none available
system.cpu00.iq.fu_full::FloatCmp                   0      0.00%     62.80% # attempts to use FU when none available
system.cpu00.iq.fu_full::FloatCvt                   0      0.00%     62.80% # attempts to use FU when none available
system.cpu00.iq.fu_full::FloatMult                  0      0.00%     62.80% # attempts to use FU when none available
system.cpu00.iq.fu_full::FloatMultAcc               0      0.00%     62.80% # attempts to use FU when none available
system.cpu00.iq.fu_full::FloatDiv                   0      0.00%     62.80% # attempts to use FU when none available
system.cpu00.iq.fu_full::FloatMisc                  0      0.00%     62.80% # attempts to use FU when none available
system.cpu00.iq.fu_full::FloatSqrt                  0      0.00%     62.80% # attempts to use FU when none available
system.cpu00.iq.fu_full::SimdAdd                    0      0.00%     62.80% # attempts to use FU when none available
system.cpu00.iq.fu_full::SimdAddAcc                 0      0.00%     62.80% # attempts to use FU when none available
system.cpu00.iq.fu_full::SimdAlu                  101      1.91%     64.71% # attempts to use FU when none available
system.cpu00.iq.fu_full::SimdCmp                    0      0.00%     64.71% # attempts to use FU when none available
system.cpu00.iq.fu_full::SimdCvt                    4      0.08%     64.78% # attempts to use FU when none available
system.cpu00.iq.fu_full::SimdMisc                   3      0.06%     64.84% # attempts to use FU when none available
system.cpu00.iq.fu_full::SimdMult                   0      0.00%     64.84% # attempts to use FU when none available
system.cpu00.iq.fu_full::SimdMultAcc                0      0.00%     64.84% # attempts to use FU when none available
system.cpu00.iq.fu_full::SimdShift                  0      0.00%     64.84% # attempts to use FU when none available
system.cpu00.iq.fu_full::SimdShiftAcc               0      0.00%     64.84% # attempts to use FU when none available
system.cpu00.iq.fu_full::SimdDiv                    0      0.00%     64.84% # attempts to use FU when none available
system.cpu00.iq.fu_full::SimdSqrt                   0      0.00%     64.84% # attempts to use FU when none available
system.cpu00.iq.fu_full::SimdFloatAdd               0      0.00%     64.84% # attempts to use FU when none available
system.cpu00.iq.fu_full::SimdFloatAlu               0      0.00%     64.84% # attempts to use FU when none available
system.cpu00.iq.fu_full::SimdFloatCmp               0      0.00%     64.84% # attempts to use FU when none available
system.cpu00.iq.fu_full::SimdFloatCvt               0      0.00%     64.84% # attempts to use FU when none available
system.cpu00.iq.fu_full::SimdFloatDiv               0      0.00%     64.84% # attempts to use FU when none available
system.cpu00.iq.fu_full::SimdFloatMisc              0      0.00%     64.84% # attempts to use FU when none available
system.cpu00.iq.fu_full::SimdFloatMult              0      0.00%     64.84% # attempts to use FU when none available
system.cpu00.iq.fu_full::SimdFloatMultAcc            0      0.00%     64.84% # attempts to use FU when none available
system.cpu00.iq.fu_full::SimdFloatSqrt              0      0.00%     64.84% # attempts to use FU when none available
system.cpu00.iq.fu_full::SimdReduceAdd              0      0.00%     64.84% # attempts to use FU when none available
system.cpu00.iq.fu_full::SimdReduceAlu              0      0.00%     64.84% # attempts to use FU when none available
system.cpu00.iq.fu_full::SimdReduceCmp              0      0.00%     64.84% # attempts to use FU when none available
system.cpu00.iq.fu_full::SimdFloatReduceAdd            0      0.00%     64.84% # attempts to use FU when none available
system.cpu00.iq.fu_full::SimdFloatReduceCmp            0      0.00%     64.84% # attempts to use FU when none available
system.cpu00.iq.fu_full::SimdAes                    0      0.00%     64.84% # attempts to use FU when none available
system.cpu00.iq.fu_full::SimdAesMix                 0      0.00%     64.84% # attempts to use FU when none available
system.cpu00.iq.fu_full::SimdSha1Hash               0      0.00%     64.84% # attempts to use FU when none available
system.cpu00.iq.fu_full::SimdSha1Hash2              0      0.00%     64.84% # attempts to use FU when none available
system.cpu00.iq.fu_full::SimdSha256Hash             0      0.00%     64.84% # attempts to use FU when none available
system.cpu00.iq.fu_full::SimdSha256Hash2            0      0.00%     64.84% # attempts to use FU when none available
system.cpu00.iq.fu_full::SimdShaSigma2              0      0.00%     64.84% # attempts to use FU when none available
system.cpu00.iq.fu_full::SimdShaSigma3              0      0.00%     64.84% # attempts to use FU when none available
system.cpu00.iq.fu_full::SimdPredAlu                0      0.00%     64.84% # attempts to use FU when none available
system.cpu00.iq.fu_full::MemRead                 1417     26.76%     91.60% # attempts to use FU when none available
system.cpu00.iq.fu_full::MemWrite                 401      7.57%     99.17% # attempts to use FU when none available
system.cpu00.iq.fu_full::FloatMemRead              17      0.32%     99.49% # attempts to use FU when none available
system.cpu00.iq.fu_full::FloatMemWrite             27      0.51%    100.00% # attempts to use FU when none available
system.cpu00.iq.fu_full::IprAccess                  0      0.00%    100.00% # attempts to use FU when none available
system.cpu00.iq.fu_full::InstPrefetch               0      0.00%    100.00% # attempts to use FU when none available
system.cpu00.iq.int_alu_accesses               465132                       # Number of integer alu accesses
system.cpu00.iq.int_inst_queue_reads          4192196                       # Number of integer instruction queue reads
system.cpu00.iq.int_inst_queue_wakeup_accesses       441120                       # Number of integer instruction queue wakeup accesses
system.cpu00.iq.int_inst_queue_writes          740826                       # Number of integer instruction queue writes
system.cpu00.iq.iqInstsAdded                   656990                       # Number of instructions added to the IQ (excludes non-spec)
system.cpu00.iq.iqInstsIssued                  589817                       # Number of instructions issued
system.cpu00.iq.iqNonSpecInstsAdded              1390                       # Number of non-speculative instructions added to the IQ
system.cpu00.iq.iqSquashedInstsExamined        334634                       # Number of squashed instructions iterated over during squash; mainly for profiling
system.cpu00.iq.iqSquashedInstsIssued            1010                       # Number of squashed instructions issued
system.cpu00.iq.iqSquashedNonSpecRemoved          821                       # Number of squashed non-spec instructions that were removed
system.cpu00.iq.iqSquashedOperandsExamined       284964                       # Number of squashed operands that are examined and possibly removed from graph
system.cpu00.iq.issued_per_cycle::samples      3263794                       # Number of insts issued each cycle
system.cpu00.iq.issued_per_cycle::mean       0.180715                       # Number of insts issued each cycle
system.cpu00.iq.issued_per_cycle::stdev      0.855296                       # Number of insts issued each cycle
system.cpu00.iq.issued_per_cycle::underflows            0      0.00%      0.00% # Number of insts issued each cycle
system.cpu00.iq.issued_per_cycle::0           3076408     94.26%     94.26% # Number of insts issued each cycle
system.cpu00.iq.issued_per_cycle::1             39959      1.22%     95.48% # Number of insts issued each cycle
system.cpu00.iq.issued_per_cycle::2             43002      1.32%     96.80% # Number of insts issued each cycle
system.cpu00.iq.issued_per_cycle::3             31930      0.98%     97.78% # Number of insts issued each cycle
system.cpu00.iq.issued_per_cycle::4             34871      1.07%     98.85% # Number of insts issued each cycle
system.cpu00.iq.issued_per_cycle::5             16562      0.51%     99.35% # Number of insts issued each cycle
system.cpu00.iq.issued_per_cycle::6              7876      0.24%     99.60% # Number of insts issued each cycle
system.cpu00.iq.issued_per_cycle::7              6974      0.21%     99.81% # Number of insts issued each cycle
system.cpu00.iq.issued_per_cycle::8              6212      0.19%    100.00% # Number of insts issued each cycle
system.cpu00.iq.issued_per_cycle::overflows            0      0.00%    100.00% # Number of insts issued each cycle
system.cpu00.iq.issued_per_cycle::min_value            0                       # Number of insts issued each cycle
system.cpu00.iq.issued_per_cycle::max_value            8                       # Number of insts issued each cycle
system.cpu00.iq.issued_per_cycle::total       3263794                       # Number of insts issued each cycle
system.cpu00.iq.rate                         0.125384                       # Inst issue rate
system.cpu00.iq.vec_alu_accesses                    0                       # Number of vector alu accesses
system.cpu00.iq.vec_inst_queue_reads                0                       # Number of vector instruction queue reads
system.cpu00.iq.vec_inst_queue_wakeup_accesses            0                       # Number of vector instruction queue wakeup accesses
system.cpu00.iq.vec_inst_queue_writes               0                       # Number of vector instruction queue writes
system.cpu00.itb.rdAccesses                         0                       # TLB accesses on read requests
system.cpu00.itb.rdMisses                           0                       # TLB misses on read requests
system.cpu00.itb.wrAccesses                     57023                       # TLB accesses on write requests
system.cpu00.itb.wrMisses                         228                       # TLB misses on write requests
system.cpu00.memDep0.conflictingLoads           29733                       # Number of conflicting loads.
system.cpu00.memDep0.conflictingStores          19277                       # Number of conflicting stores.
system.cpu00.memDep0.insertedLoads             140513                       # Number of loads inserted to the mem dependence unit.
system.cpu00.memDep0.insertedStores             48239                       # Number of stores inserted to the mem dependence unit.
system.cpu00.misc_regfile_reads                248290                       # number of misc regfile reads
system.cpu00.numCycles                        4704071                       # number of cpu cycles simulated
system.cpu00.numWorkItemsCompleted                  0                       # number of work items this cpu completed
system.cpu00.numWorkItemsStarted                    0                       # number of work items this cpu started
system.cpu00.rename.BlockCycles               1477577                       # Number of cycles rename is blocking
system.cpu00.rename.CommittedMaps              374109                       # Number of HB maps that are committed
system.cpu00.rename.IQFullEvents                16637                       # Number of times rename has blocked due to IQ full
system.cpu00.rename.IdleCycles                  64517                       # Number of cycles rename is idle
system.cpu00.rename.LQFullEvents              1568286                       # Number of times rename has blocked due to LQ full
system.cpu00.rename.ROBFullEvents                 112                       # Number of times rename has blocked due to ROB full
system.cpu00.rename.RenameLookups             1592922                       # Number of register rename lookups that rename has made
system.cpu00.rename.RenamedInsts               679178                       # Number of instructions processed by rename
system.cpu00.rename.RenamedOperands            790045                       # Number of destination operands rename has renamed
system.cpu00.rename.RunCycles                   86057                       # Number of cycles rename is running
system.cpu00.rename.SQFullEvents                24332                       # Number of times rename has blocked due to SQ full
system.cpu00.rename.SquashCycles                 4625                       # Number of cycles rename is squashing
system.cpu00.rename.UnblockCycles             1611807                       # Number of cycles rename is unblocking
system.cpu00.rename.UndoneMaps                 415936                       # Number of HB maps that are undone due to squashing
system.cpu00.rename.fp_rename_lookups          185746                       # Number of floating rename lookups
system.cpu00.rename.int_rename_lookups         973716                       # Number of integer rename lookups
system.cpu00.rename.serializeStallCycles        19211                       # count of cycles rename stalled for serializing inst
system.cpu00.rename.serializingInsts              127                       # count of serializing insts renamed
system.cpu00.rename.skidInsts                  130525                       # count of insts added to the skid buffer
system.cpu00.rename.tempSerializingInsts          124                       # count of temporary serializing insts renamed
system.cpu00.rob.rob_reads                    3824401                       # The number of ROB reads
system.cpu00.rob.rob_writes                   1361309                       # The number of ROB writes
system.cpu00.timesIdled                          2609                       # Number of times that the entire CPU went into an idle state and unscheduled itself
system.cpu00.workload.numSyscalls                  86                       # Number of system calls
system.cpu01.branchPred.BTBCorrect                  0                       # Number of correct BTB predictions (this stat may not work properly.
system.cpu01.branchPred.BTBHitPct            0.000000                       # BTB Hit Percentage
system.cpu01.branchPred.BTBHits                     0                       # Number of BTB hits
system.cpu01.branchPred.BTBLookups              80635                       # Number of BTB lookups
system.cpu01.branchPred.RASInCorrect                0                       # Number of incorrect RAS predictions.
system.cpu01.branchPred.condIncorrect              96                       # Number of conditional branches incorrect
system.cpu01.branchPred.condPredicted          147621                       # Number of conditional branches predicted
system.cpu01.branchPred.indirectHits            74114                       # Number of indirect target hits.
system.cpu01.branchPred.indirectLookups         80635                       # Number of indirect predictor lookups.
system.cpu01.branchPred.indirectMisses           6521                       # Number of indirect misses.
system.cpu01.branchPred.lookups                147944                       # Number of BP lookups
system.cpu01.branchPred.usedRAS                    96                       # Number of times the RAS was used to get a target.
system.cpu01.branchPredindirectMispredicted           46                       # Number of mispredicted indirect branches.
system.cpu01.cc_regfile_reads                  656371                       # number of cc regfile reads
system.cpu01.cc_regfile_writes                 542947                       # number of cc regfile writes
system.cpu01.commit.amos                            0                       # Number of atomic instructions committed
system.cpu01.commit.branchMispredicts             104                       # The number of times a branch was mispredicted
system.cpu01.commit.branches                   126311                       # Number of branches committed
system.cpu01.commit.bw_lim_events               14752                       # number cycles where commit BW limit reached
system.cpu01.commit.commitNonSpecStalls            10                       # The number of times commit has been forced to stall to communicate backwards
system.cpu01.commit.commitSquashedInsts        426378                       # The number of squashed insts skipped by commit
system.cpu01.commit.committedInsts             545324                       # Number of instructions committed
system.cpu01.commit.committedOps               898733                       # Number of ops (including micro ops) committed
system.cpu01.commit.committed_per_cycle::samples      4499051                       # Number of insts commited each cycle
system.cpu01.commit.committed_per_cycle::mean     0.199761                       # Number of insts commited each cycle
system.cpu01.commit.committed_per_cycle::stdev     1.081886                       # Number of insts commited each cycle
system.cpu01.commit.committed_per_cycle::underflows            0      0.00%      0.00% # Number of insts commited each cycle
system.cpu01.commit.committed_per_cycle::0      4320037     96.02%     96.02% # Number of insts commited each cycle
system.cpu01.commit.committed_per_cycle::1        32957      0.73%     96.75% # Number of insts commited each cycle
system.cpu01.commit.committed_per_cycle::2         3140      0.07%     96.82% # Number of insts commited each cycle
system.cpu01.commit.committed_per_cycle::3         3012      0.07%     96.89% # Number of insts commited each cycle
system.cpu01.commit.committed_per_cycle::4         6627      0.15%     97.04% # Number of insts commited each cycle
system.cpu01.commit.committed_per_cycle::5        61852      1.37%     98.41% # Number of insts commited each cycle
system.cpu01.commit.committed_per_cycle::6           42      0.00%     98.41% # Number of insts commited each cycle
system.cpu01.commit.committed_per_cycle::7        56632      1.26%     99.67% # Number of insts commited each cycle
system.cpu01.commit.committed_per_cycle::8        14752      0.33%    100.00% # Number of insts commited each cycle
system.cpu01.commit.committed_per_cycle::overflows            0      0.00%    100.00% # Number of insts commited each cycle
system.cpu01.commit.committed_per_cycle::min_value            0                       # Number of insts commited each cycle
system.cpu01.commit.committed_per_cycle::max_value            8                       # Number of insts commited each cycle
system.cpu01.commit.committed_per_cycle::total      4499051                       # Number of insts commited each cycle
system.cpu01.commit.fp_insts                    59407                       # Number of committed floating point instructions.
system.cpu01.commit.function_calls                 10                       # Number of function calls committed.
system.cpu01.commit.int_insts                  801215                       # Number of committed integer instructions.
system.cpu01.commit.loads                      103847                       # Number of loads committed
system.cpu01.commit.membars                         6                       # Number of memory barriers committed
system.cpu01.commit.op_class_0::No_OpClass            4      0.00%      0.00% # Class of committed instruction
system.cpu01.commit.op_class_0::IntAlu         741682     82.53%     82.53% # Class of committed instruction
system.cpu01.commit.op_class_0::IntMult          3127      0.35%     82.87% # Class of committed instruction
system.cpu01.commit.op_class_0::IntDiv              7      0.00%     82.87% # Class of committed instruction
system.cpu01.commit.op_class_0::FloatAdd         9375      1.04%     83.92% # Class of committed instruction
system.cpu01.commit.op_class_0::FloatCmp            0      0.00%     83.92% # Class of committed instruction
system.cpu01.commit.op_class_0::FloatCvt            0      0.00%     83.92% # Class of committed instruction
system.cpu01.commit.op_class_0::FloatMult            0      0.00%     83.92% # Class of committed instruction
system.cpu01.commit.op_class_0::FloatMultAcc            0      0.00%     83.92% # Class of committed instruction
system.cpu01.commit.op_class_0::FloatDiv            0      0.00%     83.92% # Class of committed instruction
system.cpu01.commit.op_class_0::FloatMisc            0      0.00%     83.92% # Class of committed instruction
system.cpu01.commit.op_class_0::FloatSqrt            0      0.00%     83.92% # Class of committed instruction
system.cpu01.commit.op_class_0::SimdAdd             0      0.00%     83.92% # Class of committed instruction
system.cpu01.commit.op_class_0::SimdAddAcc            0      0.00%     83.92% # Class of committed instruction
system.cpu01.commit.op_class_0::SimdAlu         12500      1.39%     85.31% # Class of committed instruction
system.cpu01.commit.op_class_0::SimdCmp             0      0.00%     85.31% # Class of committed instruction
system.cpu01.commit.op_class_0::SimdCvt             0      0.00%     85.31% # Class of committed instruction
system.cpu01.commit.op_class_0::SimdMisc            0      0.00%     85.31% # Class of committed instruction
system.cpu01.commit.op_class_0::SimdMult            0      0.00%     85.31% # Class of committed instruction
system.cpu01.commit.op_class_0::SimdMultAcc            0      0.00%     85.31% # Class of committed instruction
system.cpu01.commit.op_class_0::SimdShift            0      0.00%     85.31% # Class of committed instruction
system.cpu01.commit.op_class_0::SimdShiftAcc            0      0.00%     85.31% # Class of committed instruction
system.cpu01.commit.op_class_0::SimdDiv             0      0.00%     85.31% # Class of committed instruction
system.cpu01.commit.op_class_0::SimdSqrt            0      0.00%     85.31% # Class of committed instruction
system.cpu01.commit.op_class_0::SimdFloatAdd         9375      1.04%     86.35% # Class of committed instruction
system.cpu01.commit.op_class_0::SimdFloatAlu            0      0.00%     86.35% # Class of committed instruction
system.cpu01.commit.op_class_0::SimdFloatCmp            0      0.00%     86.35% # Class of committed instruction
system.cpu01.commit.op_class_0::SimdFloatCvt         6250      0.70%     87.05% # Class of committed instruction
system.cpu01.commit.op_class_0::SimdFloatDiv            0      0.00%     87.05% # Class of committed instruction
system.cpu01.commit.op_class_0::SimdFloatMisc            0      0.00%     87.05% # Class of committed instruction
system.cpu01.commit.op_class_0::SimdFloatMult            0      0.00%     87.05% # Class of committed instruction
system.cpu01.commit.op_class_0::SimdFloatMultAcc            0      0.00%     87.05% # Class of committed instruction
system.cpu01.commit.op_class_0::SimdFloatSqrt            0      0.00%     87.05% # Class of committed instruction
system.cpu01.commit.op_class_0::SimdReduceAdd            0      0.00%     87.05% # Class of committed instruction
system.cpu01.commit.op_class_0::SimdReduceAlu            0      0.00%     87.05% # Class of committed instruction
system.cpu01.commit.op_class_0::SimdReduceCmp            0      0.00%     87.05% # Class of committed instruction
system.cpu01.commit.op_class_0::SimdFloatReduceAdd            0      0.00%     87.05% # Class of committed instruction
system.cpu01.commit.op_class_0::SimdFloatReduceCmp            0      0.00%     87.05% # Class of committed instruction
system.cpu01.commit.op_class_0::SimdAes             0      0.00%     87.05% # Class of committed instruction
system.cpu01.commit.op_class_0::SimdAesMix            0      0.00%     87.05% # Class of committed instruction
system.cpu01.commit.op_class_0::SimdSha1Hash            0      0.00%     87.05% # Class of committed instruction
system.cpu01.commit.op_class_0::SimdSha1Hash2            0      0.00%     87.05% # Class of committed instruction
system.cpu01.commit.op_class_0::SimdSha256Hash            0      0.00%     87.05% # Class of committed instruction
system.cpu01.commit.op_class_0::SimdSha256Hash2            0      0.00%     87.05% # Class of committed instruction
system.cpu01.commit.op_class_0::SimdShaSigma2            0      0.00%     87.05% # Class of committed instruction
system.cpu01.commit.op_class_0::SimdShaSigma3            0      0.00%     87.05% # Class of committed instruction
system.cpu01.commit.op_class_0::SimdPredAlu            0      0.00%     87.05% # Class of committed instruction
system.cpu01.commit.op_class_0::MemRead         88206      9.81%     96.86% # Class of committed instruction
system.cpu01.commit.op_class_0::MemWrite         6300      0.70%     97.56% # Class of committed instruction
system.cpu01.commit.op_class_0::FloatMemRead        15641      1.74%     99.30% # Class of committed instruction
system.cpu01.commit.op_class_0::FloatMemWrite         6266      0.70%    100.00% # Class of committed instruction
system.cpu01.commit.op_class_0::IprAccess            0      0.00%    100.00% # Class of committed instruction
system.cpu01.commit.op_class_0::InstPrefetch            0      0.00%    100.00% # Class of committed instruction
system.cpu01.commit.op_class_0::total          898733                       # Class of committed instruction
system.cpu01.commit.refs                       116413                       # Number of memory references committed
system.cpu01.commit.swp_count                       0                       # Number of s/w prefetches committed
system.cpu01.commit.vec_insts                       0                       # Number of committed Vector instructions.
system.cpu01.committedInsts                    545324                       # Number of Instructions Simulated
system.cpu01.committedOps                      898733                       # Number of Ops (including micro ops) Simulated
system.cpu01.cpi                             8.353725                       # CPI: Cycles Per Instruction
system.cpu01.cpi_total                       8.353725                       # CPI: Total CPI of All Threads
system.cpu01.decode.BlockedCycles             4289791                       # Number of cycles decode is blocked
system.cpu01.decode.DecodedInsts              1345298                       # Number of instructions handled by decode
system.cpu01.decode.IdleCycles                  45593                       # Number of cycles decode is idle
system.cpu01.decode.RunCycles                  201512                       # Number of cycles decode is running
system.cpu01.decode.SquashCycles                 3101                       # Number of cycles decode is squashing
system.cpu01.decode.UnblockCycles               13214                       # Number of cycles decode is unblocking
system.cpu01.dtb.rdAccesses                    202028                       # TLB accesses on read requests
system.cpu01.dtb.rdMisses                          12                       # TLB misses on read requests
system.cpu01.dtb.wrAccesses                     32541                       # TLB accesses on write requests
system.cpu01.dtb.wrMisses                           1                       # TLB misses on write requests
system.cpu01.fetch.Branches                    147944                       # Number of branches that fetch encountered
system.cpu01.fetch.CacheLines                   71652                       # Number of cache lines fetched
system.cpu01.fetch.Cycles                     4473980                       # Number of cycles fetch has run and was not squashing or blocked
system.cpu01.fetch.IcacheSquashes                  19                       # Number of outstanding Icache misses that were squashed
system.cpu01.fetch.IcacheWaitRetryStallCycles           34                       # Number of stall cycles due to full MSHR
system.cpu01.fetch.Insts                       957702                       # Number of instructions fetch has processed
system.cpu01.fetch.MiscStallCycles                 10                       # Number of cycles fetch has spent waiting on interrupts, or bad addresses, or out of MSHRs
system.cpu01.fetch.PendingTrapStallCycles           57                       # Number of stall cycles due to pending traps
system.cpu01.fetch.SquashCycles                  6202                       # Number of cycles fetch has spent squashing
system.cpu01.fetch.branchRate                0.032476                       # Number of branch fetches per cycle
system.cpu01.fetch.icacheStallCycles            76029                       # Number of cycles fetch is stalled on an Icache miss
system.cpu01.fetch.predictedBranches            74210                       # Number of branches that fetch has predicted taken
system.cpu01.fetch.rate                      0.210230                       # Number of inst fetches per cycle
system.cpu01.fetch.rateDist::samples          4553211                       # Number of instructions fetched each cycle (Total)
system.cpu01.fetch.rateDist::mean            0.327256                       # Number of instructions fetched each cycle (Total)
system.cpu01.fetch.rateDist::stdev           1.455154                       # Number of instructions fetched each cycle (Total)
system.cpu01.fetch.rateDist::underflows             0      0.00%      0.00% # Number of instructions fetched each cycle (Total)
system.cpu01.fetch.rateDist::0                4298222     94.40%     94.40% # Number of instructions fetched each cycle (Total)
system.cpu01.fetch.rateDist::1                  10459      0.23%     94.63% # Number of instructions fetched each cycle (Total)
system.cpu01.fetch.rateDist::2                  14950      0.33%     94.96% # Number of instructions fetched each cycle (Total)
system.cpu01.fetch.rateDist::3                  20761      0.46%     95.41% # Number of instructions fetched each cycle (Total)
system.cpu01.fetch.rateDist::4                  57677      1.27%     96.68% # Number of instructions fetched each cycle (Total)
system.cpu01.fetch.rateDist::5                   9006      0.20%     96.88% # Number of instructions fetched each cycle (Total)
system.cpu01.fetch.rateDist::6                   4084      0.09%     96.97% # Number of instructions fetched each cycle (Total)
system.cpu01.fetch.rateDist::7                  17234      0.38%     97.35% # Number of instructions fetched each cycle (Total)
system.cpu01.fetch.rateDist::8                 120818      2.65%    100.00% # Number of instructions fetched each cycle (Total)
system.cpu01.fetch.rateDist::overflows              0      0.00%    100.00% # Number of instructions fetched each cycle (Total)
system.cpu01.fetch.rateDist::min_value              0                       # Number of instructions fetched each cycle (Total)
system.cpu01.fetch.rateDist::max_value              8                       # Number of instructions fetched each cycle (Total)
system.cpu01.fetch.rateDist::total            4553211                       # Number of instructions fetched each cycle (Total)
system.cpu01.fp_regfile_reads                  152965                       # number of floating regfile reads
system.cpu01.fp_regfile_writes                 125505                       # number of floating regfile writes
system.cpu01.idleCycles                          2276                       # Total number of cycles that the CPU has spent unscheduled due to idling
system.cpu01.iew.branchMispredicts                128                       # Number of branch mispredicts detected at execute
system.cpu01.iew.exec_branches                 142441                       # Number of branches executed
system.cpu01.iew.exec_nop                           0                       # number of nop insts executed
system.cpu01.iew.exec_rate                   0.280440                       # Inst execution rate
system.cpu01.iew.exec_refs                     234579                       # number of memory reference insts executed
system.cpu01.iew.exec_stores                    32541                       # Number of stores executed
system.cpu01.iew.exec_swp                           0                       # number of swp insts executed
system.cpu01.iew.iewBlockCycles                 51774                       # Number of cycles IEW is blocking
system.cpu01.iew.iewDispLoadInsts              202841                       # Number of dispatched load instructions
system.cpu01.iew.iewDispNonSpecInsts               11                       # Number of dispatched non-speculative instructions
system.cpu01.iew.iewDispSquashedInsts              15                       # Number of squashed instructions skipped by dispatch
system.cpu01.iew.iewDispStoreInsts              43613                       # Number of dispatched store instructions
system.cpu01.iew.iewDispatchedInsts           1319898                       # Number of instructions dispatched to IQ
system.cpu01.iew.iewExecLoadInsts              202038                       # Number of load instructions executed
system.cpu01.iew.iewExecSquashedInsts             307                       # Number of squashed instructions skipped in execute
system.cpu01.iew.iewExecutedInsts             1277540                       # Number of executed instructions
system.cpu01.iew.iewIQFullEvents                    3                       # Number of times the IQ has become full, causing a stall
system.cpu01.iew.iewIdleCycles                      0                       # Number of cycles IEW is idle
system.cpu01.iew.iewLSQFullEvents             2716048                       # Number of times the LSQ has become full, causing a stall
system.cpu01.iew.iewSquashCycles                 3101                       # Number of cycles IEW is squashing
system.cpu01.iew.iewUnblockCycles             2715221                       # Number of cycles IEW is unblocking
system.cpu01.iew.lsq.thread0.blockedLoads            0                       # Number of blocked loads due to partial load-store forwarding
system.cpu01.iew.lsq.thread0.cacheBlocked            1                       # Number of times an access to memory failed due to the cache being blocked
system.cpu01.iew.lsq.thread0.forwLoads          22439                       # Number of loads that had data forwarded from stores
system.cpu01.iew.lsq.thread0.ignoredResponses            0                       # Number of memory responses ignored because the instruction is squashed
system.cpu01.iew.lsq.thread0.invAddrLoads            0                       # Number of loads ignored due to an invalid address
system.cpu01.iew.lsq.thread0.invAddrSwpfs            0                       # Number of software prefetches ignored due to an invalid address
system.cpu01.iew.lsq.thread0.memOrderViolation            8                       # Number of memory ordering violations
system.cpu01.iew.lsq.thread0.rescheduledLoads        15346                       # Number of loads that were rescheduled
system.cpu01.iew.lsq.thread0.squashedLoads        98992                       # Number of loads squashed
system.cpu01.iew.lsq.thread0.squashedStores        31047                       # Number of stores squashed
system.cpu01.iew.memOrderViolationEvents            8                       # Number of memory order violations
system.cpu01.iew.predictedNotTakenIncorrect          124                       # Number of branches that were predicted not taken incorrectly
system.cpu01.iew.predictedTakenIncorrect            4                       # Number of branches that were predicted taken incorrectly
system.cpu01.iew.wb_consumers                 1244818                       # num instructions consuming a value
system.cpu01.iew.wb_count                     1261935                       # cumulative count of insts written-back
system.cpu01.iew.wb_fanout                   0.757691                       # average fanout of values written-back
system.cpu01.iew.wb_producers                  943188                       # num instructions producing a value
system.cpu01.iew.wb_rate                     0.277014                       # insts written-back per cycle
system.cpu01.iew.wb_sent                      1262119                       # cumulative count of insts sent to commit
system.cpu01.int_regfile_reads                1562337                       # number of integer regfile reads
system.cpu01.int_regfile_writes                912655                       # number of integer regfile writes
system.cpu01.ipc                             0.119707                       # IPC: Instructions Per Cycle
system.cpu01.ipc_total                       0.119707                       # IPC: Total IPC of All Threads
system.cpu01.iq.FU_type_0::No_OpClass              45      0.00%      0.00% # Type of FU issued
system.cpu01.iq.FU_type_0::IntAlu              941009     73.64%     73.64% # Type of FU issued
system.cpu01.iq.FU_type_0::IntMult              11131      0.87%     74.51% # Type of FU issued
system.cpu01.iq.FU_type_0::IntDiv                   7      0.00%     74.52% # Type of FU issued
system.cpu01.iq.FU_type_0::FloatAdd             28275      2.21%     76.73% # Type of FU issued
system.cpu01.iq.FU_type_0::FloatCmp                 0      0.00%     76.73% # Type of FU issued
system.cpu01.iq.FU_type_0::FloatCvt                 0      0.00%     76.73% # Type of FU issued
system.cpu01.iq.FU_type_0::FloatMult                0      0.00%     76.73% # Type of FU issued
system.cpu01.iq.FU_type_0::FloatMultAcc             0      0.00%     76.73% # Type of FU issued
system.cpu01.iq.FU_type_0::FloatDiv                 0      0.00%     76.73% # Type of FU issued
system.cpu01.iq.FU_type_0::FloatMisc                0      0.00%     76.73% # Type of FU issued
system.cpu01.iq.FU_type_0::FloatSqrt                0      0.00%     76.73% # Type of FU issued
system.cpu01.iq.FU_type_0::SimdAdd                  0      0.00%     76.73% # Type of FU issued
system.cpu01.iq.FU_type_0::SimdAddAcc               0      0.00%     76.73% # Type of FU issued
system.cpu01.iq.FU_type_0::SimdAlu              34286      2.68%     79.41% # Type of FU issued
system.cpu01.iq.FU_type_0::SimdCmp                  0      0.00%     79.41% # Type of FU issued
system.cpu01.iq.FU_type_0::SimdCvt                  0      0.00%     79.41% # Type of FU issued
system.cpu01.iq.FU_type_0::SimdMisc                 0      0.00%     79.41% # Type of FU issued
system.cpu01.iq.FU_type_0::SimdMult                 0      0.00%     79.41% # Type of FU issued
system.cpu01.iq.FU_type_0::SimdMultAcc              0      0.00%     79.41% # Type of FU issued
system.cpu01.iq.FU_type_0::SimdShift                0      0.00%     79.41% # Type of FU issued
system.cpu01.iq.FU_type_0::SimdShiftAcc             0      0.00%     79.41% # Type of FU issued
system.cpu01.iq.FU_type_0::SimdDiv                  0      0.00%     79.41% # Type of FU issued
system.cpu01.iq.FU_type_0::SimdSqrt                 0      0.00%     79.41% # Type of FU issued
system.cpu01.iq.FU_type_0::SimdFloatAdd         17281      1.35%     80.76% # Type of FU issued
system.cpu01.iq.FU_type_0::SimdFloatAlu             0      0.00%     80.76% # Type of FU issued
system.cpu01.iq.FU_type_0::SimdFloatCmp             0      0.00%     80.76% # Type of FU issued
system.cpu01.iq.FU_type_0::SimdFloatCvt         11165      0.87%     81.64% # Type of FU issued
system.cpu01.iq.FU_type_0::SimdFloatDiv             0      0.00%     81.64% # Type of FU issued
system.cpu01.iq.FU_type_0::SimdFloatMisc            0      0.00%     81.64% # Type of FU issued
system.cpu01.iq.FU_type_0::SimdFloatMult            0      0.00%     81.64% # Type of FU issued
system.cpu01.iq.FU_type_0::SimdFloatMultAcc            0      0.00%     81.64% # Type of FU issued
system.cpu01.iq.FU_type_0::SimdFloatSqrt            0      0.00%     81.64% # Type of FU issued
system.cpu01.iq.FU_type_0::SimdReduceAdd            0      0.00%     81.64% # Type of FU issued
system.cpu01.iq.FU_type_0::SimdReduceAlu            0      0.00%     81.64% # Type of FU issued
system.cpu01.iq.FU_type_0::SimdReduceCmp            0      0.00%     81.64% # Type of FU issued
system.cpu01.iq.FU_type_0::SimdFloatReduceAdd            0      0.00%     81.64% # Type of FU issued
system.cpu01.iq.FU_type_0::SimdFloatReduceCmp            0      0.00%     81.64% # Type of FU issued
system.cpu01.iq.FU_type_0::SimdAes                  0      0.00%     81.64% # Type of FU issued
system.cpu01.iq.FU_type_0::SimdAesMix               0      0.00%     81.64% # Type of FU issued
system.cpu01.iq.FU_type_0::SimdSha1Hash             0      0.00%     81.64% # Type of FU issued
system.cpu01.iq.FU_type_0::SimdSha1Hash2            0      0.00%     81.64% # Type of FU issued
system.cpu01.iq.FU_type_0::SimdSha256Hash            0      0.00%     81.64% # Type of FU issued
system.cpu01.iq.FU_type_0::SimdSha256Hash2            0      0.00%     81.64% # Type of FU issued
system.cpu01.iq.FU_type_0::SimdShaSigma2            0      0.00%     81.64% # Type of FU issued
system.cpu01.iq.FU_type_0::SimdShaSigma3            0      0.00%     81.64% # Type of FU issued
system.cpu01.iq.FU_type_0::SimdPredAlu              0      0.00%     81.64% # Type of FU issued
system.cpu01.iq.FU_type_0::MemRead             152307     11.92%     93.56% # Type of FU issued
system.cpu01.iq.FU_type_0::MemWrite             22330      1.75%     95.30% # Type of FU issued
system.cpu01.iq.FU_type_0::FloatMemRead         49796      3.90%     99.20% # Type of FU issued
system.cpu01.iq.FU_type_0::FloatMemWrite        10220      0.80%    100.00% # Type of FU issued
system.cpu01.iq.FU_type_0::IprAccess                0      0.00%    100.00% # Type of FU issued
system.cpu01.iq.FU_type_0::InstPrefetch             0      0.00%    100.00% # Type of FU issued
system.cpu01.iq.FU_type_0::total              1277852                       # Type of FU issued
system.cpu01.iq.fp_alu_accesses                151030                       # Number of floating point alu accesses
system.cpu01.iq.fp_inst_queue_reads            302053                       # Number of floating instruction queue reads
system.cpu01.iq.fp_inst_queue_wakeup_accesses       135668                       # Number of floating instruction queue wakeup accesses
system.cpu01.iq.fp_inst_queue_writes           323805                       # Number of floating instruction queue writes
system.cpu01.iq.fu_busy_cnt                      2111                       # FU busy when requested
system.cpu01.iq.fu_busy_rate                 0.001652                       # FU busy rate (busy events/executed inst)
system.cpu01.iq.fu_full::No_OpClass                 0      0.00%      0.00% # attempts to use FU when none available
system.cpu01.iq.fu_full::IntAlu                  2086     98.82%     98.82% # attempts to use FU when none available
system.cpu01.iq.fu_full::IntMult                    0      0.00%     98.82% # attempts to use FU when none available
system.cpu01.iq.fu_full::IntDiv                     0      0.00%     98.82% # attempts to use FU when none available
system.cpu01.iq.fu_full::FloatAdd                   0      0.00%     98.82% # attempts to use FU when none available
system.cpu01.iq.fu_full::FloatCmp                   0      0.00%     98.82% # attempts to use FU when none available
system.cpu01.iq.fu_full::FloatCvt                   0      0.00%     98.82% # attempts to use FU when none available
system.cpu01.iq.fu_full::FloatMult                  0      0.00%     98.82% # attempts to use FU when none available
system.cpu01.iq.fu_full::FloatMultAcc               0      0.00%     98.82% # attempts to use FU when none available
system.cpu01.iq.fu_full::FloatDiv                   0      0.00%     98.82% # attempts to use FU when none available
system.cpu01.iq.fu_full::FloatMisc                  0      0.00%     98.82% # attempts to use FU when none available
system.cpu01.iq.fu_full::FloatSqrt                  0      0.00%     98.82% # attempts to use FU when none available
system.cpu01.iq.fu_full::SimdAdd                    0      0.00%     98.82% # attempts to use FU when none available
system.cpu01.iq.fu_full::SimdAddAcc                 0      0.00%     98.82% # attempts to use FU when none available
system.cpu01.iq.fu_full::SimdAlu                    0      0.00%     98.82% # attempts to use FU when none available
system.cpu01.iq.fu_full::SimdCmp                    0      0.00%     98.82% # attempts to use FU when none available
system.cpu01.iq.fu_full::SimdCvt                    0      0.00%     98.82% # attempts to use FU when none available
system.cpu01.iq.fu_full::SimdMisc                   0      0.00%     98.82% # attempts to use FU when none available
system.cpu01.iq.fu_full::SimdMult                   0      0.00%     98.82% # attempts to use FU when none available
system.cpu01.iq.fu_full::SimdMultAcc                0      0.00%     98.82% # attempts to use FU when none available
system.cpu01.iq.fu_full::SimdShift                  0      0.00%     98.82% # attempts to use FU when none available
system.cpu01.iq.fu_full::SimdShiftAcc               0      0.00%     98.82% # attempts to use FU when none available
system.cpu01.iq.fu_full::SimdDiv                    0      0.00%     98.82% # attempts to use FU when none available
system.cpu01.iq.fu_full::SimdSqrt                   0      0.00%     98.82% # attempts to use FU when none available
system.cpu01.iq.fu_full::SimdFloatAdd               0      0.00%     98.82% # attempts to use FU when none available
system.cpu01.iq.fu_full::SimdFloatAlu               0      0.00%     98.82% # attempts to use FU when none available
system.cpu01.iq.fu_full::SimdFloatCmp               0      0.00%     98.82% # attempts to use FU when none available
system.cpu01.iq.fu_full::SimdFloatCvt               0      0.00%     98.82% # attempts to use FU when none available
system.cpu01.iq.fu_full::SimdFloatDiv               0      0.00%     98.82% # attempts to use FU when none available
system.cpu01.iq.fu_full::SimdFloatMisc              0      0.00%     98.82% # attempts to use FU when none available
system.cpu01.iq.fu_full::SimdFloatMult              0      0.00%     98.82% # attempts to use FU when none available
system.cpu01.iq.fu_full::SimdFloatMultAcc            0      0.00%     98.82% # attempts to use FU when none available
system.cpu01.iq.fu_full::SimdFloatSqrt              0      0.00%     98.82% # attempts to use FU when none available
system.cpu01.iq.fu_full::SimdReduceAdd              0      0.00%     98.82% # attempts to use FU when none available
system.cpu01.iq.fu_full::SimdReduceAlu              0      0.00%     98.82% # attempts to use FU when none available
system.cpu01.iq.fu_full::SimdReduceCmp              0      0.00%     98.82% # attempts to use FU when none available
system.cpu01.iq.fu_full::SimdFloatReduceAdd            0      0.00%     98.82% # attempts to use FU when none available
system.cpu01.iq.fu_full::SimdFloatReduceCmp            0      0.00%     98.82% # attempts to use FU when none available
system.cpu01.iq.fu_full::SimdAes                    0      0.00%     98.82% # attempts to use FU when none available
system.cpu01.iq.fu_full::SimdAesMix                 0      0.00%     98.82% # attempts to use FU when none available
system.cpu01.iq.fu_full::SimdSha1Hash               0      0.00%     98.82% # attempts to use FU when none available
system.cpu01.iq.fu_full::SimdSha1Hash2              0      0.00%     98.82% # attempts to use FU when none available
system.cpu01.iq.fu_full::SimdSha256Hash             0      0.00%     98.82% # attempts to use FU when none available
system.cpu01.iq.fu_full::SimdSha256Hash2            0      0.00%     98.82% # attempts to use FU when none available
system.cpu01.iq.fu_full::SimdShaSigma2              0      0.00%     98.82% # attempts to use FU when none available
system.cpu01.iq.fu_full::SimdShaSigma3              0      0.00%     98.82% # attempts to use FU when none available
system.cpu01.iq.fu_full::SimdPredAlu                0      0.00%     98.82% # attempts to use FU when none available
system.cpu01.iq.fu_full::MemRead                   12      0.57%     99.38% # attempts to use FU when none available
system.cpu01.iq.fu_full::MemWrite                   6      0.28%     99.67% # attempts to use FU when none available
system.cpu01.iq.fu_full::FloatMemRead               3      0.14%     99.81% # attempts to use FU when none available
system.cpu01.iq.fu_full::FloatMemWrite              4      0.19%    100.00% # attempts to use FU when none available
system.cpu01.iq.fu_full::IprAccess                  0      0.00%    100.00% # attempts to use FU when none available
system.cpu01.iq.fu_full::InstPrefetch               0      0.00%    100.00% # attempts to use FU when none available
system.cpu01.iq.int_alu_accesses              1128888                       # Number of integer alu accesses
system.cpu01.iq.int_inst_queue_reads          6808980                       # Number of integer instruction queue reads
system.cpu01.iq.int_inst_queue_wakeup_accesses      1126267                       # Number of integer instruction queue wakeup accesses
system.cpu01.iq.int_inst_queue_writes         1417251                       # Number of integer instruction queue writes
system.cpu01.iq.iqInstsAdded                  1319873                       # Number of instructions added to the IQ (excludes non-spec)
system.cpu01.iq.iqInstsIssued                 1277852                       # Number of instructions issued
[...]
system.mem_ctrls.rdQLenPdf::7                       9                       # What read queue length does an incoming req see
system.mem_ctrls.rdQLenPdf::8                       4                       # What read queue length does an incoming req see
system.mem_ctrls.rdQLenPdf::9                       4                       # What read queue length does an incoming req see
system.mem_ctrls.rdQLenPdf::10                      0                       # What read queue length does an incoming req see
system.mem_ctrls.rdQLenPdf::11                      0                       # What read queue length does an incoming req see
system.mem_ctrls.rdQLenPdf::12                      0                       # What read queue length does an incoming req see
system.mem_ctrls.rdQLenPdf::13                      0                       # What read queue length does an incoming req see
system.mem_ctrls.rdQLenPdf::14                      0                       # What read queue length does an incoming req see
system.mem_ctrls.rdQLenPdf::15                      0                       # What read queue length does an incoming req see
system.mem_ctrls.rdQLenPdf::16                      0                       # What read queue length does an incoming req see
system.mem_ctrls.rdQLenPdf::17                      0                       # What read queue length does an incoming req see
system.mem_ctrls.rdQLenPdf::18                      0                       # What read queue length does an incoming req see
system.mem_ctrls.rdQLenPdf::19                      0                       # What read queue length does an incoming req see
system.mem_ctrls.rdQLenPdf::20                      0                       # What read queue length does an incoming req see
system.mem_ctrls.rdQLenPdf::21                      0                       # What read queue length does an incoming req see
system.mem_ctrls.rdQLenPdf::22                      0                       # What read queue length does an incoming req see
system.mem_ctrls.rdQLenPdf::23                      0                       # What read queue length does an incoming req see
system.mem_ctrls.rdQLenPdf::24                      0                       # What read queue length does an incoming req see
system.mem_ctrls.rdQLenPdf::25                      0                       # What read queue length does an incoming req see
system.mem_ctrls.rdQLenPdf::26                      0                       # What read queue length does an incoming req see
system.mem_ctrls.rdQLenPdf::27                      0                       # What read queue length does an incoming req see
system.mem_ctrls.rdQLenPdf::28                      0                       # What read queue length does an incoming req see
system.mem_ctrls.rdQLenPdf::29                      0                       # What read queue length does an incoming req see
system.mem_ctrls.rdQLenPdf::30                      0                       # What read queue length does an incoming req see
system.mem_ctrls.rdQLenPdf::31                      0                       # What read queue length does an incoming req see
system.mem_ctrls.wrQLenPdf::0                       0                       # What write queue length does an incoming req see
system.mem_ctrls.wrQLenPdf::1                       0                       # What write queue length does an incoming req see
system.mem_ctrls.wrQLenPdf::2                       0                       # What write queue length does an incoming req see
system.mem_ctrls.wrQLenPdf::3                       0                       # What write queue length does an incoming req see
system.mem_ctrls.wrQLenPdf::4                       0                       # What write queue length does an incoming req see
system.mem_ctrls.wrQLenPdf::5                       0                       # What write queue length does an incoming req see
system.mem_ctrls.wrQLenPdf::6                       0                       # What write queue length does an incoming req see
system.mem_ctrls.wrQLenPdf::7                       0                       # What write queue length does an incoming req see
system.mem_ctrls.wrQLenPdf::8                       0                       # What write queue length does an incoming req see
system.mem_ctrls.wrQLenPdf::9                       0                       # What write queue length does an incoming req see
system.mem_ctrls.wrQLenPdf::10                      0                       # What write queue length does an incoming req see
system.mem_ctrls.wrQLenPdf::11                      0                       # What write queue length does an incoming req see
system.mem_ctrls.wrQLenPdf::12                      0                       # What write queue length does an incoming req see
system.mem_ctrls.wrQLenPdf::13                      0                       # What write queue length does an incoming req see
system.mem_ctrls.wrQLenPdf::14                      0                       # What write queue length does an incoming req see
system.mem_ctrls.wrQLenPdf::15                      0                       # What write queue length does an incoming req see
system.mem_ctrls.wrQLenPdf::16                      0                       # What write queue length does an incoming req see
system.mem_ctrls.wrQLenPdf::17                      0                       # What write queue length does an incoming req see
system.mem_ctrls.wrQLenPdf::18                      0                       # What write queue length does an incoming req see
system.mem_ctrls.wrQLenPdf::19                      0                       # What write queue length does an incoming req see
system.mem_ctrls.wrQLenPdf::20                      0                       # What write queue length does an incoming req see
system.mem_ctrls.wrQLenPdf::21                      0                       # What write queue length does an incoming req see
system.mem_ctrls.wrQLenPdf::22                      0                       # What write queue length does an incoming req see
system.mem_ctrls.wrQLenPdf::23                      0                       # What write queue length does an incoming req see
system.mem_ctrls.wrQLenPdf::24                      0                       # What write queue length does an incoming req see
system.mem_ctrls.wrQLenPdf::25                      0                       # What write queue length does an incoming req see
system.mem_ctrls.wrQLenPdf::26                      0                       # What write queue length does an incoming req see
system.mem_ctrls.wrQLenPdf::27                      0                       # What write queue length does an incoming req see
system.mem_ctrls.wrQLenPdf::28                      0                       # What write queue length does an incoming req see
system.mem_ctrls.wrQLenPdf::29                      0                       # What write queue length does an incoming req see
system.mem_ctrls.wrQLenPdf::30                      0                       # What write queue length does an incoming req see
system.mem_ctrls.wrQLenPdf::31                      0                       # What write queue length does an incoming req see
system.mem_ctrls.wrQLenPdf::32                      0                       # What write queue length does an incoming req see
system.mem_ctrls.wrQLenPdf::33                      0                       # What write queue length does an incoming req see
system.mem_ctrls.wrQLenPdf::34                      0                       # What write queue length does an incoming req see
system.mem_ctrls.wrQLenPdf::35                      0                       # What write queue length does an incoming req see
system.mem_ctrls.wrQLenPdf::36                      0                       # What write queue length does an incoming req see
system.mem_ctrls.wrQLenPdf::37                      0                       # What write queue length does an incoming req see
system.mem_ctrls.wrQLenPdf::38                      0                       # What write queue length does an incoming req see
system.mem_ctrls.wrQLenPdf::39                      0                       # What write queue length does an incoming req see
system.mem_ctrls.wrQLenPdf::40                      0                       # What write queue length does an incoming req see
system.mem_ctrls.wrQLenPdf::41                      0                       # What write queue length does an incoming req see
system.mem_ctrls.wrQLenPdf::42                      0                       # What write queue length does an incoming req see
system.mem_ctrls.wrQLenPdf::43                      0                       # What write queue length does an incoming req see
system.mem_ctrls.wrQLenPdf::44                      0                       # What write queue length does an incoming req see
system.mem_ctrls.wrQLenPdf::45                      0                       # What write queue length does an incoming req see
system.mem_ctrls.wrQLenPdf::46                      0                       # What write queue length does an incoming req see
system.mem_ctrls.wrQLenPdf::47                      0                       # What write queue length does an incoming req see
system.mem_ctrls.wrQLenPdf::48                      0                       # What write queue length does an incoming req see
system.mem_ctrls.wrQLenPdf::49                      0                       # What write queue length does an incoming req see
system.mem_ctrls.wrQLenPdf::50                      0                       # What write queue length does an incoming req see
system.mem_ctrls.wrQLenPdf::51                      0                       # What write queue length does an incoming req see
system.mem_ctrls.wrQLenPdf::52                      0                       # What write queue length does an incoming req see
system.mem_ctrls.wrQLenPdf::53                      0                       # What write queue length does an incoming req see
system.mem_ctrls.wrQLenPdf::54                      0                       # What write queue length does an incoming req see
system.mem_ctrls.wrQLenPdf::55                      0                       # What write queue length does an incoming req see
system.mem_ctrls.wrQLenPdf::56                      0                       # What write queue length does an incoming req see
system.mem_ctrls.wrQLenPdf::57                      0                       # What write queue length does an incoming req see
system.mem_ctrls.wrQLenPdf::58                      0                       # What write queue length does an incoming req see
system.mem_ctrls.wrQLenPdf::59                      0                       # What write queue length does an incoming req see
system.mem_ctrls.wrQLenPdf::60                      0                       # What write queue length does an incoming req see
system.mem_ctrls.wrQLenPdf::61                      0                       # What write queue length does an incoming req see
system.mem_ctrls.wrQLenPdf::62                      0                       # What write queue length does an incoming req see
system.mem_ctrls.wrQLenPdf::63                      0                       # What write queue length does an incoming req see
system.mem_ctrls.bytesPerActivate::samples          512                       # Bytes accessed per row activation
system.mem_ctrls.bytesPerActivate::mean    347.500000                       # Bytes accessed per row activation
system.mem_ctrls.bytesPerActivate::gmean   262.315859                       # Bytes accessed per row activation
system.mem_ctrls.bytesPerActivate::stdev   282.941884                       # Bytes accessed per row activation
system.mem_ctrls.bytesPerActivate::0-127            1      0.20%      0.20% # Bytes accessed per row activation
system.mem_ctrls.bytesPerActivate::128-255          215     41.99%     42.19% # Bytes accessed per row activation
system.mem_ctrls.bytesPerActivate::256-383          100     19.53%     61.72% # Bytes accessed per row activation
system.mem_ctrls.bytesPerActivate::384-511           70     13.67%     75.39% # Bytes accessed per row activation
system.mem_ctrls.bytesPerActivate::512-639           42      8.20%     83.59% # Bytes accessed per row activation
system.mem_ctrls.bytesPerActivate::640-767           15      2.93%     86.52% # Bytes accessed per row activation
system.mem_ctrls.bytesPerActivate::768-895           13      2.54%     89.06% # Bytes accessed per row activation
system.mem_ctrls.bytesPerActivate::896-1023            5      0.98%     90.04% # Bytes accessed per row activation
system.mem_ctrls.bytesPerActivate::1024-1151           51      9.96%    100.00% # Bytes accessed per row activation
system.mem_ctrls.bytesPerActivate::total          512                       # Bytes accessed per row activation
system.mem_ctrls.bytesReadDRAM                 178688                       # Total number of bytes read from DRAM
system.mem_ctrls.bytesReadWrQ                       0                       # Total number of bytes read from write queue
system.mem_ctrls.bytesWritten                       0                       # Total number of bytes written to DRAM
system.mem_ctrls.bytesReadSys                  178688                       # Total read bytes from the system interface side
system.mem_ctrls.bytesWrittenSys                    0                       # Total written bytes from the system interface side
system.mem_ctrls.avgRdBW                        75.97                       # Average DRAM read bandwidth in MiByte/s
system.mem_ctrls.avgWrBW                         0.00                       # Average achieved write bandwidth in MiByte/s
system.mem_ctrls.avgRdBWSys                     75.97                       # Average system read bandwidth in MiByte/s
system.mem_ctrls.avgWrBWSys                      0.00                       # Average system write bandwidth in MiByte/s
system.mem_ctrls.peakBW                      12800.00                       # Theoretical peak bandwidth in MiByte/s
system.mem_ctrls.busUtil                         0.59                       # Data bus utilization in percentage
system.mem_ctrls.busUtilRead                     0.59                       # Data bus utilization in percentage for reads
system.mem_ctrls.busUtilWrite                    0.00                       # Data bus utilization in percentage for writes
system.mem_ctrls.totGap                    2351914000                       # Total gap between requests
system.mem_ctrls.avgGap                    1684752.15                       # Average gap between requests
system.mem_ctrls.masterReadBytes::.ruby.dir_cntrl0       178688                       # Per-master bytes read from memory
system.mem_ctrls.masterReadRate::.ruby.dir_cntrl0 75971658.585012555122                       # Per-master bytes read from memory rate (Bytes/sec)
system.mem_ctrls.masterReadAccesses::.ruby.dir_cntrl0         2792                       # Per-master read serviced memory accesses
system.mem_ctrls.masterReadTotalLat::.ruby.dir_cntrl0     99000232                       # Per-master read total memory access latency
system.mem_ctrls.masterReadAvgLat::.ruby.dir_cntrl0     35458.54                       # Per-master read average memory access latency
system.mem_ctrls.pageHitRate                    81.52                       # Row buffer hit rate, read and write combined
system.mem_ctrls.rank1.actEnergy              1485120                       # Energy for activate commands per rank (pJ)
system.mem_ctrls.rank1.preEnergy               785565                       # Energy for precharge commands per rank (pJ)
system.mem_ctrls.rank1.readEnergy             7654080                       # Energy for read commands per rank (pJ)
system.mem_ctrls.rank1.writeEnergy                  0                       # Energy for write commands per rank (pJ)
system.mem_ctrls.rank1.refreshEnergy     185621280.000000                       # Energy for refresh commands per rank (pJ)
system.mem_ctrls.rank1.actBackEnergy         71822850                       # Energy for active background per rank (pJ)
system.mem_ctrls.rank1.preBackEnergy        842699040                       # Energy for precharge background per rank (pJ)
system.mem_ctrls.rank1.actPowerDownEnergy            0                       # Energy for active power-down per rank (pJ)
system.mem_ctrls.rank1.prePowerDownEnergy            0                       # Energy for precharge power-down per rank (pJ)
system.mem_ctrls.rank1.selfRefreshEnergy            0                       # Energy for self refresh per rank (pJ)
system.mem_ctrls.rank1.totalEnergy         1110067935                       # Total energy per rank (pJ)
system.mem_ctrls.rank1.averagePower        471.960636                       # Core power per rank (mW)
system.mem_ctrls.rank1.totalIdleTime                0                       # Total Idle time Per DRAM Rank
system.mem_ctrls.rank1.memoryStateTime::IDLE   2190149750                       # Time in different power states
system.mem_ctrls.rank1.memoryStateTime::REF     78520000                       # Time in different power states
system.mem_ctrls.rank1.memoryStateTime::SREF            0                       # Time in different power states
system.mem_ctrls.rank1.memoryStateTime::PRE_PDN            0                       # Time in different power states
system.mem_ctrls.rank1.memoryStateTime::ACT     83365250                       # Time in different power states
system.mem_ctrls.rank1.memoryStateTime::ACT_PDN            0                       # Time in different power states
system.mem_ctrls.rank0.actEnergy              2199120                       # Energy for activate commands per rank (pJ)
system.mem_ctrls.rank0.preEnergy              1157475                       # Energy for precharge commands per rank (pJ)
system.mem_ctrls.rank0.readEnergy            12280800                       # Energy for read commands per rank (pJ)
system.mem_ctrls.rank0.writeEnergy                  0                       # Energy for write commands per rank (pJ)
system.mem_ctrls.rank0.refreshEnergy     185621280.000000                       # Energy for refresh commands per rank (pJ)
system.mem_ctrls.rank0.actBackEnergy         78335670                       # Energy for active background per rank (pJ)
system.mem_ctrls.rank0.preBackEnergy        837214560                       # Energy for precharge background per rank (pJ)
system.mem_ctrls.rank0.actPowerDownEnergy            0                       # Energy for active power-down per rank (pJ)
system.mem_ctrls.rank0.prePowerDownEnergy            0                       # Energy for precharge power-down per rank (pJ)
system.mem_ctrls.rank0.selfRefreshEnergy            0                       # Energy for self refresh per rank (pJ)
system.mem_ctrls.rank0.totalEnergy         1116808905                       # Total energy per rank (pJ)
system.mem_ctrls.rank0.averagePower        474.826652                       # Core power per rank (mW)
system.mem_ctrls.rank0.totalIdleTime                0                       # Total Idle time Per DRAM Rank
system.mem_ctrls.rank0.memoryStateTime::IDLE   2175843500                       # Time in different power states
system.mem_ctrls.rank0.memoryStateTime::REF     78520000                       # Time in different power states
system.mem_ctrls.rank0.memoryStateTime::SREF            0                       # Time in different power states
system.mem_ctrls.rank0.memoryStateTime::PRE_PDN            0                       # Time in different power states
system.mem_ctrls.rank0.memoryStateTime::ACT     97671500                       # Time in different power states
system.mem_ctrls.rank0.memoryStateTime::ACT_PDN            0                       # Time in different power states

---------- End Simulation Statistics   ----------
