
---------- Begin Simulation Statistics ----------
final_tick                                 1926056500                       # Number of ticks from beginning of simulation (restored from checkpoints and never reset)
host_inst_rate                                  20761                       # Simulator instruction rate (inst/s)
host_mem_usage                                1137872                       # Number of bytes of host memory used
host_op_rate                                    32140                       # Simulator op (including micro ops) rate (op/s)
host_seconds                                   328.95                       # Real time elapsed on the host
host_tick_rate                                5855153                       # Simulator tick rate (ticks/s)
sim_freq                                 1000000000000                       # Frequency of simulated ticks
sim_insts                                     6829181                       # Number of instructions simulated
sim_ops                                      10572421                       # Number of ops (including micro ops) simulated
sim_seconds                                  0.001926                       # Number of seconds simulated
sim_ticks                                  1926056500                       # Number of ticks simulated
system.cpu00.branchPred.BTBCorrect                  0                       # Number of correct BTB predictions (this stat may not work properly.
system.cpu00.branchPred.BTBHitPct            0.000000                       # BTB Hit Percentage
system.cpu00.branchPred.BTBHits                     0                       # Number of BTB hits
system.cpu00.branchPred.BTBLookups             245957                       # Number of BTB lookups
system.cpu00.branchPred.RASInCorrect               11                       # Number of incorrect RAS predictions.
system.cpu00.branchPred.condIncorrect            2352                       # Number of conditional branches incorrect
system.cpu00.branchPred.condPredicted          244284                       # Number of conditional branches predicted
system.cpu00.branchPred.indirectHits           119609                       # Number of indirect target hits.
system.cpu00.branchPred.indirectLookups        245957                       # Number of indirect predictor lookups.
system.cpu00.branchPred.indirectMisses         126348                       # Number of indirect misses.
system.cpu00.branchPred.lookups                251907                       # Number of BP lookups
system.cpu00.branchPred.usedRAS                  3365                       # Number of times the RAS was used to get a target.
system.cpu00.branchPredindirectMispredicted         2050                       # Number of mispredicted indirect branches.
system.cpu00.cc_regfile_reads                 1133283                       # number of cc regfile reads
system.cpu00.cc_regfile_writes                 809585                       # number of cc regfile writes
system.cpu00.commit.amos                            0                       # Number of atomic instructions committed
system.cpu00.commit.branchMispredicts            2428                       # The number of times a branch was mispredicted
system.cpu00.commit.branches                   222211                       # Number of branches committed
system.cpu00.commit.bw_lim_events               23289                       # number cycles where commit BW limit reached
system.cpu00.commit.commitNonSpecStalls           568                       # The number of times commit has been forced to stall to communicate backwards
system.cpu00.commit.commitSquashedInsts        428804                       # The number of squashed insts skipped by commit
system.cpu00.commit.committedInsts             892520                       # Number of instructions committed
system.cpu00.commit.committedOps              1514664                       # Number of ops (including micro ops) committed
system.cpu00.commit.committed_per_cycle::samples      3730419                       # Number of insts commited each cycle
system.cpu00.commit.committed_per_cycle::mean     0.406031                       # Number of insts commited each cycle
system.cpu00.commit.committed_per_cycle::stdev     1.532558                       # Number of insts commited each cycle
system.cpu00.commit.committed_per_cycle::underflows            0      0.00%      0.00% # Number of insts commited each cycle
system.cpu00.commit.committed_per_cycle::0      3456699     92.66%     92.66% # Number of insts commited each cycle
system.cpu00.commit.committed_per_cycle::1        20163      0.54%     93.20% # Number of insts commited each cycle
system.cpu00.commit.committed_per_cycle::2         9623      0.26%     93.46% # Number of insts commited each cycle
system.cpu00.commit.committed_per_cycle::3         9377      0.25%     93.71% # Number of insts commited each cycle
system.cpu00.commit.committed_per_cycle::4         2846      0.08%     93.79% # Number of insts commited each cycle
system.cpu00.commit.committed_per_cycle::5       104422      2.80%     96.59% # Number of insts commited each cycle
system.cpu00.commit.committed_per_cycle::6          682      0.02%     96.61% # Number of insts commited each cycle
system.cpu00.commit.committed_per_cycle::7       103318      2.77%     99.38% # Number of insts commited each cycle
system.cpu00.commit.committed_per_cycle::8        23289      0.62%    100.00% # Number of insts commited each cycle
system.cpu00.commit.committed_per_cycle::overflows            0      0.00%    100.00% # Number of insts commited each cycle
system.cpu00.commit.committed_per_cycle::min_value            0                       # Number of insts commited each cycle
system.cpu00.commit.committed_per_cycle::max_value            8                       # Number of insts commited each cycle
system.cpu00.commit.committed_per_cycle::total      3730419                       # Number of insts commited each cycle
system.cpu00.commit.fp_insts                    62810                       # Number of committed floating point instructions.
system.cpu00.commit.function_calls               2080                       # Number of function calls committed.
system.cpu00.commit.int_insts                 1375573                       # Number of committed integer instructions.
system.cpu00.commit.loads                      160052                       # Number of loads committed
system.cpu00.commit.membars                       322                       # Number of memory barriers committed
system.cpu00.commit.op_class_0::No_OpClass          375      0.02%      0.02% # Class of committed instruction
system.cpu00.commit.op_class_0::IntAlu        1286030     84.91%     84.93% # Class of committed instruction
system.cpu00.commit.op_class_0::IntMult          3263      0.22%     85.15% # Class of committed instruction
system.cpu00.commit.op_class_0::IntDiv             21      0.00%     85.15% # Class of committed instruction
system.cpu00.commit.op_class_0::FloatAdd         9416      0.62%     85.77% # Class of committed instruction
system.cpu00.commit.op_class_0::FloatCmp            0      0.00%     85.77% # Class of committed instruction
system.cpu00.commit.op_class_0::FloatCvt            0      0.00%     85.77% # Class of committed instruction
system.cpu00.commit.op_class_0::FloatMult            0      0.00%     85.77% # Class of committed instruction
system.cpu00.commit.op_class_0::FloatMultAcc            0      0.00%     85.77% # Class of committed instruction
system.cpu00.commit.op_class_0::FloatDiv            0      0.00%     85.77% # Class of committed instruction
system.cpu00.commit.op_class_0::FloatMisc            0      0.00%     85.77% # Class of committed instruction
system.cpu00.commit.op_class_0::FloatSqrt            0      0.00%     85.77% # Class of committed instruction
system.cpu00.commit.op_class_0::SimdAdd            16      0.00%     85.77% # Class of committed instruction
system.cpu00.commit.op_class_0::SimdAddAcc            0      0.00%     85.77% # Class of committed instruction
system.cpu00.commit.op_class_0::SimdAlu         13424      0.89%     86.66% # Class of committed instruction
system.cpu00.commit.op_class_0::SimdCmp             0      0.00%     86.66% # Class of committed instruction
system.cpu00.commit.op_class_0::SimdCvt           342      0.02%     86.68% # Class of committed instruction
system.cpu00.commit.op_class_0::SimdMisc          393      0.03%     86.70% # Class of committed instruction
system.cpu00.commit.op_class_0::SimdMult            0      0.00%     86.70% # Class of committed instruction
system.cpu00.commit.op_class_0::SimdMultAcc            0      0.00%     86.70% # Class of committed instruction
system.cpu00.commit.op_class_0::SimdShift            0      0.00%     86.70% # Class of committed instruction
system.cpu00.commit.op_class_0::SimdShiftAcc            0      0.00%     86.70% # Class of committed instruction
system.cpu00.commit.op_class_0::SimdDiv             0      0.00%     86.70% # Class of committed instruction
system.cpu00.commit.op_class_0::SimdSqrt            0      0.00%     86.70% # Class of committed instruction
system.cpu00.commit.op_class_0::SimdFloatAdd         9375      0.62%     87.32% # Class of committed instruction
system.cpu00.commit.op_class_0::SimdFloatAlu            0      0.00%     87.32% # Class of committed instruction
system.cpu00.commit.op_class_0::SimdFloatCmp            0      0.00%     87.32% # Class of committed instruction
system.cpu00.commit.op_class_0::SimdFloatCvt         6282      0.41%     87.74% # Class of committed instruction
system.cpu00.commit.op_class_0::SimdFloatDiv           32      0.00%     87.74% # Class of committed instruction
system.cpu00.commit.op_class_0::SimdFloatMisc            0      0.00%     87.74% # Class of committed instruction
system.cpu00.commit.op_class_0::SimdFloatMult            0      0.00%     87.74% # Class of committed instruction
system.cpu00.commit.op_class_0::SimdFloatMultAcc            0      0.00%     87.74% # Class of committed instruction
system.cpu00.commit.op_class_0::SimdFloatSqrt            0      0.00%     87.74% # Class of committed instruction
system.cpu00.commit.op_class_0::SimdReduceAdd            0      0.00%     87.74% # Class of committed instruction
system.cpu00.commit.op_class_0::SimdReduceAlu            0      0.00%     87.74% # Class of committed instruction
system.cpu00.commit.op_class_0::SimdReduceCmp            0      0.00%     87.74% # Class of committed instruction
system.cpu00.commit.op_class_0::SimdFloatReduceAdd            0      0.00%     87.74% # Class of committed instruction
system.cpu00.commit.op_class_0::SimdFloatReduceCmp            0      0.00%     87.74% # Class of committed instruction
system.cpu00.commit.op_class_0::SimdAes             0      0.00%     87.74% # Class of committed instruction
system.cpu00.commit.op_class_0::SimdAesMix            0      0.00%     87.74% # Class of committed instruction
system.cpu00.commit.op_class_0::SimdSha1Hash            0      0.00%     87.74% # Class of committed instruction
system.cpu00.commit.op_class_0::SimdSha1Hash2            0      0.00%     87.74% # Class of committed instruction
system.cpu00.commit.op_class_0::SimdSha256Hash            0      0.00%     87.74% # Class of committed instruction
system.cpu00.commit.op_class_0::SimdSha256Hash2            0      0.00%     87.74% # Class of committed instruction
system.cpu00.commit.op_class_0::SimdShaSigma2            0      0.00%     87.74% # Class of committed instruction
system.cpu00.commit.op_class_0::SimdShaSigma3            0      0.00%     87.74% # Class of committed instruction
system.cpu00.commit.op_class_0::SimdPredAlu            0      0.00%     87.74% # Class of committed instruction
system.cpu00.commit.op_class_0::MemRead        144041      9.51%     97.25% # Class of committed instruction
system.cpu00.commit.op_class_0::MemWrite        18144      1.20%     98.45% # Class of committed instruction
system.cpu00.commit.op_class_0::FloatMemRead        16011      1.06%     99.50% # Class of committed instruction
system.cpu00.commit.op_class_0::FloatMemWrite         7499      0.50%    100.00% # Class of committed instruction
system.cpu00.commit.op_class_0::IprAccess            0      0.00%    100.00% # Class of committed instruction
system.cpu00.commit.op_class_0::InstPrefetch            0      0.00%    100.00% # Class of committed instruction
system.cpu00.commit.op_class_0::total         1514664                       # Class of committed instruction
system.cpu00.commit.refs                       185695                       # Number of memory references committed
system.cpu00.commit.swp_count                       0                       # Number of s/w prefetches committed
system.cpu00.commit.vec_insts                       0                       # Number of committed Vector instructions.
system.cpu00.committedInsts                    892520                       # Number of Instructions Simulated
system.cpu00.committedOps                     1514664                       # Number of Ops (including micro ops) Simulated
system.cpu00.cpi                             4.315997                       # CPI: Cycles Per Instruction
system.cpu00.cpi_total                       4.315997                       # CPI: Total CPI of All Threads
system.cpu00.decode.BlockedCycles             3392206                       # Number of cycles decode is blocked
system.cpu00.decode.DecodedInsts              1989472                       # Number of instructions handled by decode
system.cpu00.decode.IdleCycles                  77655                       # Number of cycles decode is idle
system.cpu00.decode.RunCycles                  296651                       # Number of cycles decode is running
system.cpu00.decode.SquashCycles                 5209                       # Number of cycles decode is squashing
system.cpu00.decode.UnblockCycles               15279                       # Number of cycles decode is unblocking
system.cpu00.dtb.rdAccesses                    273482                       # TLB accesses on read requests
system.cpu00.dtb.rdMisses                         262                       # TLB misses on read requests
system.cpu00.dtb.wrAccesses                     44673                       # TLB accesses on write requests
system.cpu00.dtb.wrMisses                         101                       # TLB misses on write requests
system.cpu00.fetch.Branches                    251907                       # Number of branches that fetch encountered
system.cpu00.fetch.CacheLines                   68850                       # Number of cache lines fetched
system.cpu00.fetch.Cycles                     3668213                       # Number of cycles fetch has run and was not squashing or blocked
system.cpu00.fetch.IcacheSquashes                1232                       # Number of outstanding Icache misses that were squashed
system.cpu00.fetch.IcacheWaitRetryStallCycles           17                       # Number of stall cycles due to full MSHR
system.cpu00.fetch.Insts                      1304195                       # Number of instructions fetch has processed
system.cpu00.fetch.MiscStallCycles                 83                       # Number of cycles fetch has spent waiting on interrupts, or bad addresses, or out of MSHRs
system.cpu00.fetch.PendingQuiesceStallCycles           19                       # Number of stall cycles due to pending quiesce instructions
system.cpu00.fetch.PendingTrapStallCycles          488                       # Number of stall cycles due to pending traps
system.cpu00.fetch.SquashCycles                 10418                       # Number of cycles fetch has spent squashing
system.cpu00.fetch.branchRate                0.065394                       # Number of branch fetches per cycle
system.cpu00.fetch.icacheStallCycles           112971                       # Number of cycles fetch is stalled on an Icache miss
system.cpu00.fetch.predictedBranches           122974                       # Number of branches that fetch has predicted taken
system.cpu00.fetch.rate                      0.338566                       # Number of inst fetches per cycle
system.cpu00.fetch.rateDist::samples          3787000                       # Number of instructions fetched each cycle (Total)
system.cpu00.fetch.rateDist::mean            0.563693                       # Number of instructions fetched each cycle (Total)
system.cpu00.fetch.rateDist::stdev           1.879142                       # Number of instructions fetched each cycle (Total)
system.cpu00.fetch.rateDist::underflows             0      0.00%      0.00% # Number of instructions fetched each cycle (Total)
system.cpu00.fetch.rateDist::0                3433592     90.67%     90.67% # Number of instructions fetched each cycle (Total)
system.cpu00.fetch.rateDist::1                   6014      0.16%     90.83% # Number of instructions fetched each cycle (Total)
system.cpu00.fetch.rateDist::2                  15117      0.40%     91.23% # Number of instructions fetched each cycle (Total)
system.cpu00.fetch.rateDist::3                  15042      0.40%     91.62% # Number of instructions fetched each cycle (Total)
system.cpu00.fetch.rateDist::4                 104383      2.76%     94.38% # Number of instructions fetched each cycle (Total)
system.cpu00.fetch.rateDist::5                  12488      0.33%     94.71% # Number of instructions fetched each cycle (Total)
system.cpu00.fetch.rateDist::6                   5848      0.15%     94.86% # Number of instructions fetched each cycle (Total)
system.cpu00.fetch.rateDist::7                  17858      0.47%     95.34% # Number of instructions fetched each cycle (Total)
system.cpu00.fetch.rateDist::8                 176658      4.66%    100.00% # Number of instructions fetched each cycle (Total)
system.cpu00.fetch.rateDist::overflows              0      0.00%    100.00% # Number of instructions fetched each cycle (Total)
system.cpu00.fetch.rateDist::min_value              0                       # Number of instructions fetched each cycle (Total)
system.cpu00.fetch.rateDist::max_value              8                       # Number of instructions fetched each cycle (Total)
system.cpu00.fetch.rateDist::total            3787000                       # Number of instructions fetched each cycle (Total)
system.cpu00.fp_regfile_reads                  161701                       # number of floating regfile reads
system.cpu00.fp_regfile_writes                 127229                       # number of floating regfile writes
system.cpu00.idleCycles                         65114                       # Total number of cycles that the CPU has spent unscheduled due to idling
system.cpu00.iew.branchMispredicts               3165                       # Number of branch mispredicts detected at execute
system.cpu00.iew.exec_branches                 238479                       # Number of branches executed
system.cpu00.iew.exec_nop                           0                       # number of nop insts executed
system.cpu00.iew.exec_rate                   0.489430                       # Inst execution rate
system.cpu00.iew.exec_refs                     298881                       # number of memory reference insts executed
system.cpu00.iew.exec_stores                    44668                       # Number of stores executed
system.cpu00.iew.exec_swp                           0                       # number of swp insts executed
system.cpu00.iew.iewBlockCycles                 53961                       # Number of cycles IEW is blocking
system.cpu00.iew.iewDispLoadInsts              257083                       # Number of dispatched load instructions
system.cpu00.iew.iewDispNonSpecInsts              564                       # Number of dispatched non-speculative instructions
system.cpu00.iew.iewDispSquashedInsts             135                       # Number of squashed instructions skipped by dispatch
system.cpu00.iew.iewDispStoreInsts              57235                       # Number of dispatched store instructions
system.cpu00.iew.iewDispatchedInsts           1947349                       # Number of instructions dispatched to IQ
system.cpu00.iew.iewExecLoadInsts              254213                       # Number of load instructions executed
system.cpu00.iew.iewExecSquashedInsts            5104                       # Number of squashed instructions skipped in execute
system.cpu00.iew.iewExecutedInsts             1885341                       # Number of executed instructions
system.cpu00.iew.iewIQFullEvents                   76                       # Number of times the IQ has become full, causing a stall
system.cpu00.iew.iewIdleCycles                      0                       # Number of cycles IEW is idle
system.cpu00.iew.iewLSQFullEvents             1460068                       # Number of times the LSQ has become full, causing a stall
system.cpu00.iew.iewSquashCycles                 5209                       # Number of cycles IEW is squashing
system.cpu00.iew.iewUnblockCycles             1460210                       # Number of cycles IEW is unblocking
system.cpu00.iew.lsq.thread0.blockedLoads            0                       # Number of blocked loads due to partial load-store forwarding
system.cpu00.iew.lsq.thread0.cacheBlocked            6                       # Number of times an access to memory failed due to the cache being blocked
system.cpu00.iew.lsq.thread0.forwLoads          25058                       # Number of loads that had data forwarded from stores
system.cpu00.iew.lsq.thread0.ignoredResponses           17                       # Number of memory responses ignored because the instruction is squashed
system.cpu00.iew.lsq.thread0.invAddrLoads            0                       # Number of loads ignored due to an invalid address
system.cpu00.iew.lsq.thread0.invAddrSwpfs            0                       # Number of software prefetches ignored due to an invalid address
system.cpu00.iew.lsq.thread0.memOrderViolation           83                       # Number of memory ordering violations
system.cpu00.iew.lsq.thread0.rescheduledLoads        14758                       # Number of loads that were rescheduled
system.cpu00.iew.lsq.thread0.squashedLoads        97031                       # Number of loads squashed
system.cpu00.iew.lsq.thread0.squashedStores        31592                       # Number of stores squashed
system.cpu00.iew.memOrderViolationEvents           83                       # Number of memory order violations
system.cpu00.iew.predictedNotTakenIncorrect         3011                       # Number of branches that were predicted not taken incorrectly
system.cpu00.iew.predictedTakenIncorrect          154                       # Number of branches that were predicted taken incorrectly
system.cpu00.iew.wb_consumers                 1873775                       # num instructions consuming a value
system.cpu00.iew.wb_count                     1867223                       # cumulative count of insts written-back
system.cpu00.iew.wb_fanout                   0.739562                       # average fanout of values written-back
system.cpu00.iew.wb_producers                 1385773                       # num instructions producing a value
system.cpu00.iew.wb_rate                     0.484727                       # insts written-back per cycle
system.cpu00.iew.wb_sent                      1869786                       # cumulative count of insts sent to commit
system.cpu00.int_regfile_reads                2207235                       # number of integer regfile reads
system.cpu00.int_regfile_writes               1368239                       # number of integer regfile writes
system.cpu00.ipc                             0.231696                       # IPC: Instructions Per Cycle
system.cpu00.ipc_total                       0.231696                       # IPC: Total IPC of All Threads
system.cpu00.iq.FU_type_0::No_OpClass            1118      0.06%      0.06% # Type of FU issued
system.cpu00.iq.FU_type_0::IntAlu             1486491     78.63%     78.69% # Type of FU issued
system.cpu00.iq.FU_type_0::IntMult               9998      0.53%     79.22% # Type of FU issued
system.cpu00.iq.FU_type_0::IntDiv                  23      0.00%     79.22% # Type of FU issued
system.cpu00.iq.FU_type_0::FloatAdd             27067      1.43%     80.65% # Type of FU issued
system.cpu00.iq.FU_type_0::FloatCmp                 0      0.00%     80.65% # Type of FU issued
system.cpu00.iq.FU_type_0::FloatCvt                 0      0.00%     80.65% # Type of FU issued
system.cpu00.iq.FU_type_0::FloatMult                0      0.00%     80.65% # Type of FU issued
system.cpu00.iq.FU_type_0::FloatMultAcc             0      0.00%     80.65% # Type of FU issued
system.cpu00.iq.FU_type_0::FloatDiv                 0      0.00%     80.65% # Type of FU issued
system.cpu00.iq.FU_type_0::FloatMisc                0      0.00%     80.65% # Type of FU issued
system.cpu00.iq.FU_type_0::FloatSqrt                0      0.00%     80.65% # Type of FU issued
system.cpu00.iq.FU_type_0::SimdAdd                 16      0.00%     80.65% # Type of FU issued
system.cpu00.iq.FU_type_0::SimdAddAcc               0      0.00%     80.65% # Type of FU issued
system.cpu00.iq.FU_type_0::SimdAlu              35296      1.87%     82.52% # Type of FU issued
system.cpu00.iq.FU_type_0::SimdCmp                  0      0.00%     82.52% # Type of FU issued
system.cpu00.iq.FU_type_0::SimdCvt                342      0.02%     82.54% # Type of FU issued
system.cpu00.iq.FU_type_0::SimdMisc               398      0.02%     82.56% # Type of FU issued
system.cpu00.iq.FU_type_0::SimdMult                 0      0.00%     82.56% # Type of FU issued
system.cpu00.iq.FU_type_0::SimdMultAcc              0      0.00%     82.56% # Type of FU issued
system.cpu00.iq.FU_type_0::SimdShift                0      0.00%     82.56% # Type of FU issued
system.cpu00.iq.FU_type_0::SimdShiftAcc             0      0.00%     82.56% # Type of FU issued
system.cpu00.iq.FU_type_0::SimdDiv                  0      0.00%     82.56% # Type of FU issued
system.cpu00.iq.FU_type_0::SimdSqrt                 0      0.00%     82.56% # Type of FU issued
system.cpu00.iq.FU_type_0::SimdFloatAdd         17553      0.93%     83.49% # Type of FU issued
system.cpu00.iq.FU_type_0::SimdFloatAlu             0      0.00%     83.49% # Type of FU issued
system.cpu00.iq.FU_type_0::SimdFloatCmp             0      0.00%     83.49% # Type of FU issued
system.cpu00.iq.FU_type_0::SimdFloatCvt         11750      0.62%     84.11% # Type of FU issued
system.cpu00.iq.FU_type_0::SimdFloatDiv            32      0.00%     84.11% # Type of FU issued
system.cpu00.iq.FU_type_0::SimdFloatMisc            0      0.00%     84.11% # Type of FU issued
system.cpu00.iq.FU_type_0::SimdFloatMult            0      0.00%     84.11% # Type of FU issued
system.cpu00.iq.FU_type_0::SimdFloatMultAcc            0      0.00%     84.11% # Type of FU issued
system.cpu00.iq.FU_type_0::SimdFloatSqrt            0      0.00%     84.11% # Type of FU issued
system.cpu00.iq.FU_type_0::SimdReduceAdd            0      0.00%     84.11% # Type of FU issued
system.cpu00.iq.FU_type_0::SimdReduceAlu            0      0.00%     84.11% # Type of FU issued
system.cpu00.iq.FU_type_0::SimdReduceCmp            0      0.00%     84.11% # Type of FU issued
system.cpu00.iq.FU_type_0::SimdFloatReduceAdd            0      0.00%     84.11% # Type of FU issued
system.cpu00.iq.FU_type_0::SimdFloatReduceCmp            0      0.00%     84.11% # Type of FU issued
system.cpu00.iq.FU_type_0::SimdAes                  0      0.00%     84.11% # Type of FU issued
system.cpu00.iq.FU_type_0::SimdAesMix               0      0.00%     84.11% # Type of FU issued
system.cpu00.iq.FU_type_0::SimdSha1Hash             0      0.00%     84.11% # Type of FU issued
system.cpu00.iq.FU_type_0::SimdSha1Hash2            0      0.00%     84.11% # Type of FU issued
system.cpu00.iq.FU_type_0::SimdSha256Hash            0      0.00%     84.11% # Type of FU issued
system.cpu00.iq.FU_type_0::SimdSha256Hash2            0      0.00%     84.11% # Type of FU issued
system.cpu00.iq.FU_type_0::SimdShaSigma2            0      0.00%     84.11% # Type of FU issued
system.cpu00.iq.FU_type_0::SimdShaSigma3            0      0.00%     84.11% # Type of FU issued
system.cpu00.iq.FU_type_0::SimdPredAlu              0      0.00%     84.11% # Type of FU issued
system.cpu00.iq.FU_type_0::MemRead             205155     10.85%     94.96% # Type of FU issued
system.cpu00.iq.FU_type_0::MemWrite             33634      1.78%     96.74% # Type of FU issued
system.cpu00.iq.FU_type_0::FloatMemRead         49932      2.64%     99.38% # Type of FU issued
system.cpu00.iq.FU_type_0::FloatMemWrite        11640      0.62%    100.00% # Type of FU issued
system.cpu00.iq.FU_type_0::IprAccess                0      0.00%    100.00% # Type of FU issued
system.cpu00.iq.FU_type_0::InstPrefetch             0      0.00%    100.00% # Type of FU issued
system.cpu00.iq.FU_type_0::total              1890445                       # Type of FU issued
system.cpu00.iq.fp_alu_accesses                154200                       # Number of floating point alu accesses
system.cpu00.iq.fp_inst_queue_reads            308290                       # Number of floating instruction queue reads
system.cpu00.iq.fp_inst_queue_wakeup_accesses       138009                       # Number of floating instruction queue wakeup accesses
system.cpu00.iq.fp_inst_queue_writes           313668                       # Number of floating instruction queue writes
system.cpu00.iq.fu_busy_cnt                      5683                       # FU busy when requested
system.cpu00.iq.fu_busy_rate                 0.003006                       # FU busy rate (busy events/executed inst)
system.cpu00.iq.fu_full::No_OpClass                 0      0.00%      0.00% # attempts to use FU when none available
system.cpu00.iq.fu_full::IntAlu                  4779     84.09%     84.09% # attempts to use FU when none available
system.cpu00.iq.fu_full::IntMult                    0      0.00%     84.09% # attempts to use FU when none available
system.cpu00.iq.fu_full::IntDiv                     0      0.00%     84.09% # attempts to use FU when none available
system.cpu00.iq.fu_full::FloatAdd                   0      0.00%     84.09% # attempts to use FU when none available
system.cpu00.iq.fu_full::FloatCmp                   0      0.00%     84.09% # attempts to use FU when none available
system.cpu00.iq.fu_full::FloatCvt                   0      0.00%     84.09% # attempts to use FU when none available
system.cpu00.iq.fu_full::FloatMult                  0      0.00%     84.09% # attempts to use FU when none available
system.cpu00.iq.fu_full::FloatMultAcc               0      0.00%     84.09% # attempts to use FU when none available
system.cpu00.iq.fu_full::FloatDiv                   0      0.00%     84.09% # attempts to use FU when none available
system.cpu00.iq.fu_full::FloatMisc                  0      0.00%     84.09% # attempts to use FU when none available
system.cpu00.iq.fu_full::FloatSqrt                  0      0.00%     84.09% # attempts to use FU when none available
system.cpu00.iq.fu_full::SimdAdd                    0      0.00%     84.09% # attempts to use FU when none available
system.cpu00.iq.fu_full::SimdAddAcc                 0      0.00%     84.09% # attempts to use FU when none available
system.cpu00.iq.fu_full::SimdAlu                  105      1.85%     85.94% # attempts to use FU when none available
system.cpu00.iq.fu_full::SimdCmp                    0      0.00%     85.94% # attempts to use FU when none available
system.cpu00.iq.fu_full::SimdCvt                    2      0.04%     85.98% # attempts to use FU when none available
system.cpu00.iq.fu_full::SimdMisc                   0      0.00%     85.98% # attempts to use FU when none available
system.cpu00.iq.fu_full::SimdMult                   0      0.00%     85.98% # attempts to use FU when none available
system.cpu00.iq.fu_full::SimdMultAcc                0      0.00%     85.98% # attempts to use FU when none available
system.cpu00.iq.fu_full::SimdShift                  0      0.00%     85.98% # attempts to use FU when none available
system.cpu00.iq.fu_full::SimdShiftAcc               0      0.00%     85.98% # attempts to use FU when none available
system.cpu00.iq.fu_full::SimdDiv                    0      0.00%     85.98% # attempts to use FU when none available
system.cpu00.iq.fu_full::SimdSqrt                   0      0.00%     85.98% # attempts to use FU when none available
system.cpu00.iq.fu_full::SimdFloatAdd               0      0.00%     85.98% # attempts to use FU when none available
system.cpu00.iq.fu_full::SimdFloatAlu               0      0.00%     85.98% # attempts to use FU when none available
system.cpu00.iq.fu_full::SimdFloatCmp               0      0.00%     85.98% # attempts to use FU when none available
system.cpu00.iq.fu_full::SimdFloatCvt               0      0.00%     85.98% # attempts to use FU when none available
system.cpu00.iq.fu_full::SimdFloatDiv               0      0.00%     85.98% # attempts to use FU when none available
system.cpu00.iq.fu_full::SimdFloatMisc              0      0.00%     85.98% # attempts to use FU when none available
system.cpu00.iq.fu_full::SimdFloatMult              0      0.00%     85.98% # attempts to use FU when none available
system.cpu00.iq.fu_full::SimdFloatMultAcc            0      0.00%     85.98% # attempts to use FU when none available
system.cpu00.iq.fu_full::SimdFloatSqrt              0      0.00%     85.98% # attempts to use FU when none available
system.cpu00.iq.fu_full::SimdReduceAdd              0      0.00%     85.98% # attempts to use FU when none available
system.cpu00.iq.fu_full::SimdReduceAlu              0      0.00%     85.98% # attempts to use FU when none available
system.cpu00.iq.fu_full::SimdReduceCmp              0      0.00%     85.98% # attempts to use FU when none available
system.cpu00.iq.fu_full::SimdFloatReduceAdd            0      0.00%     85.98% # attempts to use FU when none available
system.cpu00.iq.fu_full::SimdFloatReduceCmp            0      0.00%     85.98% # attempts to use FU when none available
system.cpu00.iq.fu_full::SimdAes                    0      0.00%     85.98% # attempts to use FU when none available
system.cpu00.iq.fu_full::SimdAesMix                 0      0.00%     85.98% # attempts to use FU when none available
system.cpu00.iq.fu_full::SimdSha1Hash               0      0.00%     85.98% # attempts to use FU when none available
system.cpu00.iq.fu_full::SimdSha1Hash2              0      0.00%     85.98% # attempts to use FU when none available
system.cpu00.iq.fu_full::SimdSha256Hash             0      0.00%     85.98% # attempts to use FU when none available
system.cpu00.iq.fu_full::SimdSha256Hash2            0      0.00%     85.98% # attempts to use FU when none available
system.cpu00.iq.fu_full::SimdShaSigma2              0      0.00%     85.98% # attempts to use FU when none available
system.cpu00.iq.fu_full::SimdShaSigma3              0      0.00%     85.98% # attempts to use FU when none available
system.cpu00.iq.fu_full::SimdPredAlu                0      0.00%     85.98% # attempts to use FU when none available
system.cpu00.iq.fu_full::MemRead                  359      6.32%     92.29% # attempts to use FU when none available
system.cpu00.iq.fu_full::MemWrite                 392      6.90%     99.19% # attempts to use FU when none available
system.cpu00.iq.fu_full::FloatMemRead              20      0.35%     99.54% # attempts to use FU when none available
system.cpu00.iq.fu_full::FloatMemWrite             26      0.46%    100.00% # attempts to use FU when none available
system.cpu00.iq.fu_full::IprAccess                  0      0.00%    100.00% # attempts to use FU when none available
system.cpu00.iq.fu_full::InstPrefetch               0      0.00%    100.00% # attempts to use FU when none available
system.cpu00.iq.int_alu_accesses              1740810                       # Number of integer alu accesses
system.cpu00.iq.int_inst_queue_reads          7266109                       # Number of integer instruction queue reads
system.cpu00.iq.int_inst_queue_wakeup_accesses      1729214                       # Number of integer instruction queue wakeup accesses
system.cpu00.iq.int_inst_queue_writes         2066444                       # Number of integer instruction queue writes
system.cpu00.iq.iqInstsAdded                  1945919                       # Number of instructions added to the IQ (excludes non-spec)
system.cpu00.iq.iqInstsIssued                 1890445                       # Number of instructions issued
system.cpu00.iq.iqNonSpecInstsAdded              1430                       # Number of non-speculative instructions added to the IQ
system.cpu00.iq.iqSquashedInstsExamined        432684                       # Number of squashed instructions iterated over during squash; mainly for profiling
system.cpu00.iq.iqSquashedInstsIssued             826                       # Number of squashed instructions issued
system.cpu00.iq.iqSquashedNonSpecRemoved          862                       # Number of squashed non-spec instructions that were removed
system.cpu00.iq.iqSquashedOperandsExamined       233266                       # Number of squashed operands that are examined and possibly removed from graph
system.cpu00.iq.issued_per_cycle::samples      3787000                       # Number of insts issued each cycle
system.cpu00.iq.issued_per_cycle::mean       0.499193                       # Number of insts issued each cycle
system.cpu00.iq.issued_per_cycle::stdev      1.573485                       # Number of insts issued each cycle
system.cpu00.iq.issued_per_cycle::underflows            0      0.00%      0.00% # Number of insts issued each cycle
system.cpu00.iq.issued_per_cycle::0           3354417     88.58%     88.58% # Number of insts issued each cycle
system.cpu00.iq.issued_per_cycle::1             62634      1.65%     90.23% # Number of insts issued each cycle
system.cpu00.iq.issued_per_cycle::2             60934      1.61%     91.84% # Number of insts issued each cycle
system.cpu00.iq.issued_per_cycle::3             35650      0.94%     92.78% # Number of insts issued each cycle
system.cpu00.iq.issued_per_cycle::4             22282      0.59%     93.37% # Number of insts issued each cycle
system.cpu00.iq.issued_per_cycle::5            119420      3.15%     96.52% # Number of insts issued each cycle
system.cpu00.iq.issued_per_cycle::6             16089      0.42%     96.95% # Number of insts issued each cycle
system.cpu00.iq.issued_per_cycle::7            108361      2.86%     99.81% # Number of insts issued each cycle
system.cpu00.iq.issued_per_cycle::8              7213      0.19%    100.00% # Number of insts issued each cycle
system.cpu00.iq.issued_per_cycle::overflows            0      0.00%    100.00% # Number of insts issued each cycle
system.cpu00.iq.issued_per_cycle::min_value            0                       # Number of insts issued each cycle
system.cpu00.iq.issued_per_cycle::max_value            8                       # Number of insts issued each cycle
system.cpu00.iq.issued_per_cycle::total       3787000                       # Number of insts issued each cycle
system.cpu00.iq.rate                         0.490755                       # Inst issue rate
system.cpu00.iq.vec_alu_accesses                    0                       # Number of vector alu accesses
system.cpu00.iq.vec_inst_queue_reads                0                       # Number of vector instruction queue reads
system.cpu00.iq.vec_inst_queue_wakeup_accesses            0                       # Number of vector instruction queue wakeup accesses
system.cpu00.iq.vec_inst_queue_writes               0                       # Number of vector instruction queue writes
system.cpu00.itb.rdAccesses                         0                       # TLB accesses on read requests
system.cpu00.itb.rdMisses                           0                       # TLB misses on read requests
system.cpu00.itb.wrAccesses                     68933                       # TLB accesses on write requests
system.cpu00.itb.wrMisses                         201                       # TLB misses on write requests
system.cpu00.memDep0.conflictingLoads           34267                       # Number of conflicting loads.
system.cpu00.memDep0.conflictingStores          24949                       # Number of conflicting stores.
system.cpu00.memDep0.insertedLoads             257083                       # Number of loads inserted to the mem dependence unit.
system.cpu00.memDep0.insertedStores             57235                       # Number of stores inserted to the mem dependence unit.
system.cpu00.misc_regfile_reads                778734                       # number of misc regfile reads
system.cpu00.numCycles                        3852114                       # number of cpu cycles simulated
system.cpu00.numWorkItemsCompleted                  0                       # number of work items this cpu completed
system.cpu00.numWorkItemsStarted                    0                       # number of work items this cpu started
system.cpu00.rename.BlockCycles               1519274                       # Number of cycles rename is blocking
system.cpu00.rename.CommittedMaps             1862767                       # Number of HB maps that are committed
system.cpu00.rename.IQFullEvents                 1698                       # Number of times rename has blocked due to IQ full
system.cpu00.rename.IdleCycles                  86296                       # Number of cycles rename is idle
system.cpu00.rename.LQFullEvents              1821108                       # Number of times rename has blocked due to LQ full
system.cpu00.rename.ROBFullEvents                 142                       # Number of times rename has blocked due to ROB full
system.cpu00.rename.RenameLookups             4503533                       # Number of register rename lookups that rename has made
system.cpu00.rename.RenamedInsts              1966710                       # Number of instructions processed by rename
system.cpu00.rename.RenamedOperands           2396827                       # Number of destination operands rename has renamed
system.cpu00.rename.RunCycles                  303061                       # Number of cycles rename is running
system.cpu00.rename.SQFullEvents                28119                       # Number of times rename has blocked due to SQ full
system.cpu00.rename.SquashCycles                 5209                       # Number of cycles rename is squashing
system.cpu00.rename.UnblockCycles             1850931                       # Number of cycles rename is unblocking
system.cpu00.rename.UndoneMaps                 534060                       # Number of HB maps that are undone due to squashing
system.cpu00.rename.fp_rename_lookups          233715                       # Number of floating rename lookups
system.cpu00.rename.int_rename_lookups        2301916                       # Number of integer rename lookups
system.cpu00.rename.serializeStallCycles        22229                       # count of cycles rename stalled for serializing inst
system.cpu00.rename.serializingInsts              127                       # count of serializing insts renamed
system.cpu00.rename.skidInsts                   92982                       # count of insts added to the skid buffer
system.cpu00.rename.tempSerializingInsts          124                       # count of temporary serializing insts renamed
system.cpu00.rob.rob_reads                    5615329                       # The number of ROB reads
system.cpu00.rob.rob_writes                   3943631                       # The number of ROB writes
system.cpu00.timesIdled                           690                       # Number of times that the entire CPU went into an idle state and unscheduled itself
system.cpu00.workload.numSyscalls                  85                       # Number of system calls
system.cpu01.branchPred.BTBCorrect                  0                       # Number of correct BTB predictions (this stat may not work properly.
system.cpu01.branchPred.BTBHitPct            0.000000                       # BTB Hit Percentage
system.cpu01.branchPred.BTBHits                     0                       # Number of BTB hits
system.cpu01.branchPred.BTBLookups             128976                       # Number of BTB lookups
system.cpu01.branchPred.RASInCorrect                0                       # Number of incorrect RAS predictions.
system.cpu01.branchPred.condIncorrect              97                       # Number of conditional branches incorrect
system.cpu01.branchPred.condPredicted          236916                       # Number of conditional branches predicted
system.cpu01.branchPred.indirectHits           118621                       # Number of indirect target hits.
system.cpu01.branchPred.indirectLookups        128976                       # Number of indirect predictor lookups.
system.cpu01.branchPred.indirectMisses          10355                       # Number of indirect misses.
system.cpu01.branchPred.lookups                237269                       # Number of BP lookups
system.cpu01.branchPred.usedRAS                   102                       # Number of times the RAS was used to get a target.
system.cpu01.branchPredindirectMispredicted           47                       # Number of mispredicted indirect branches.
system.cpu01.cc_regfile_reads                 1110655                       # number of cc regfile reads
system.cpu01.cc_regfile_writes                 800624                       # number of cc regfile writes
system.cpu01.commit.amos                            0                       # Number of atomic instructions committed
system.cpu01.commit.branchMispredicts             150                       # The number of times a branch was mispredicted
system.cpu01.commit.branches                   218501                       # Number of branches committed
system.cpu01.commit.bw_lim_events               14217                       # number cycles where commit BW limit reached
system.cpu01.commit.commitNonSpecStalls            10                       # The number of times commit has been forced to stall to communicate backwards
system.cpu01.commit.commitSquashedInsts        372299                       # The number of squashed insts skipped by commit
system.cpu01.commit.committedInsts             867987                       # Number of instructions committed
system.cpu01.commit.committedOps              1451869                       # Number of ops (including micro ops) committed
system.cpu01.commit.committed_per_cycle::samples      3619955                       # Number of insts commited each cycle
system.cpu01.commit.committed_per_cycle::mean     0.401074                       # Number of insts commited each cycle
system.cpu01.commit.committed_per_cycle::stdev     1.507270                       # Number of insts commited each cycle
system.cpu01.commit.committed_per_cycle::underflows            0      0.00%      0.00% # Number of insts commited each cycle
system.cpu01.commit.committed_per_cycle::0      3345184     92.41%     92.41% # Number of insts commited each cycle
system.cpu01.commit.committed_per_cycle::1        36005      0.99%     93.40% # Number of insts commited each cycle
system.cpu01.commit.committed_per_cycle::2         3147      0.09%     93.49% # Number of insts commited each cycle
system.cpu01.commit.committed_per_cycle::3         2744      0.08%     93.57% # Number of insts commited each cycle
system.cpu01.commit.committed_per_cycle::4         8339      0.23%     93.80% # Number of insts commited each cycle
system.cpu01.commit.committed_per_cycle::5       108974      3.01%     96.81% # Number of insts commited each cycle
system.cpu01.commit.committed_per_cycle::6           39      0.00%     96.81% # Number of insts commited each cycle
system.cpu01.commit.committed_per_cycle::7       101306      2.80%     99.61% # Number of insts commited each cycle
system.cpu01.commit.committed_per_cycle::8        14217      0.39%    100.00% # Number of insts commited each cycle
system.cpu01.commit.committed_per_cycle::overflows            0      0.00%    100.00% # Number of insts commited each cycle
system.cpu01.commit.committed_per_cycle::min_value            0                       # Number of insts commited each cycle
system.cpu01.commit.committed_per_cycle::max_value            8                       # Number of insts commited each cycle
system.cpu01.commit.committed_per_cycle::total      3619955                       # Number of insts commited each cycle
system.cpu01.commit.fp_insts                    59407                       # Number of committed floating point instructions.
system.cpu01.commit.function_calls                 10                       # Number of function calls committed.
system.cpu01.commit.int_insts                 1308257                       # Number of committed integer instructions.
system.cpu01.commit.loads                      149942                       # Number of loads committed
system.cpu01.commit.membars                         6                       # Number of memory barriers committed
system.cpu01.commit.op_class_0::No_OpClass            4      0.00%      0.00% # Class of committed instruction
system.cpu01.commit.op_class_0::IntAlu        1248723     86.01%     86.01% # Class of committed instruction
system.cpu01.commit.op_class_0::IntMult          3127      0.22%     86.22% # Class of committed instruction
system.cpu01.commit.op_class_0::IntDiv              7      0.00%     86.22% # Class of committed instruction
system.cpu01.commit.op_class_0::FloatAdd         9375      0.65%     86.87% # Class of committed instruction
system.cpu01.commit.op_class_0::FloatCmp            0      0.00%     86.87% # Class of committed instruction
system.cpu01.commit.op_class_0::FloatCvt            0      0.00%     86.87% # Class of committed instruction
system.cpu01.commit.op_class_0::FloatMult            0      0.00%     86.87% # Class of committed instruction
system.cpu01.commit.op_class_0::FloatMultAcc            0      0.00%     86.87% # Class of committed instruction
system.cpu01.commit.op_class_0::FloatDiv            0      0.00%     86.87% # Class of committed instruction
system.cpu01.commit.op_class_0::FloatMisc            0      0.00%     86.87% # Class of committed instruction
system.cpu01.commit.op_class_0::FloatSqrt            0      0.00%     86.87% # Class of committed instruction
system.cpu01.commit.op_class_0::SimdAdd             0      0.00%     86.87% # Class of committed instruction
system.cpu01.commit.op_class_0::SimdAddAcc            0      0.00%     86.87% # Class of committed instruction
system.cpu01.commit.op_class_0::SimdAlu         12500      0.86%     87.73% # Class of committed instruction
system.cpu01.commit.op_class_0::SimdCmp             0      0.00%     87.73% # Class of committed instruction
system.cpu01.commit.op_class_0::SimdCvt             0      0.00%     87.73% # Class of committed instruction
system.cpu01.commit.op_class_0::SimdMisc            0      0.00%     87.73% # Class of committed instruction
system.cpu01.commit.op_class_0::SimdMult            0      0.00%     87.73% # Class of committed instruction
system.cpu01.commit.op_class_0::SimdMultAcc            0      0.00%     87.73% # Class of committed instruction
system.cpu01.commit.op_class_0::SimdShift            0      0.00%     87.73% # Class of committed instruction
system.cpu01.commit.op_class_0::SimdShiftAcc            0      0.00%     87.73% # Class of committed instruction
system.cpu01.commit.op_class_0::SimdDiv             0      0.00%     87.73% # Class of committed instruction
system.cpu01.commit.op_class_0::SimdSqrt            0      0.00%     87.73% # Class of committed instruction
system.cpu01.commit.op_class_0::SimdFloatAdd         9375      0.65%     88.38% # Class of committed instruction
system.cpu01.commit.op_class_0::SimdFloatAlu            0      0.00%     88.38% # Class of committed instruction
system.cpu01.commit.op_class_0::SimdFloatCmp            0      0.00%     88.38% # Class of committed instruction
system.cpu01.commit.op_class_0::SimdFloatCvt         6250      0.43%     88.81% # Class of committed instruction
system.cpu01.commit.op_class_0::SimdFloatDiv            0      0.00%     88.81% # Class of committed instruction
system.cpu01.commit.op_class_0::SimdFloatMisc            0      0.00%     88.81% # Class of committed instruction
system.cpu01.commit.op_class_0::SimdFloatMult            0      0.00%     88.81% # Class of committed instruction
system.cpu01.commit.op_class_0::SimdFloatMultAcc            0      0.00%     88.81% # Class of committed instruction
system.cpu01.commit.op_class_0::SimdFloatSqrt            0      0.00%     88.81% # Class of committed instruction
system.cpu01.commit.op_class_0::SimdReduceAdd            0      0.00%     88.81% # Class of committed instruction
system.cpu01.commit.op_class_0::SimdReduceAlu            0      0.00%     88.81% # Class of committed instruction
system.cpu01.commit.op_class_0::SimdReduceCmp            0      0.00%     88.81% # Class of committed instruction
system.cpu01.commit.op_class_0::SimdFloatReduceAdd            0      0.00%     88.81% # Class of committed instruction
system.cpu01.commit.op_class_0::SimdFloatReduceCmp            0      0.00%     88.81% # Class of committed instruction
system.cpu01.commit.op_class_0::SimdAes             0      0.00%     88.81% # Class of committed instruction
system.cpu01.commit.op_class_0::SimdAesMix            0      0.00%     88.81% # Class of committed instruction
system.cpu01.commit.op_class_0::SimdSha1Hash            0      0.00%     88.81% # Class of committed instruction
system.cpu01.commit.op_class_0::SimdSha1Hash2            0      0.00%     88.81% # Class of committed instruction
system.cpu01.commit.op_class_0::SimdSha256Hash            0      0.00%     88.81% # Class of committed instruction
system.cpu01.commit.op_class_0::SimdSha256Hash2            0      0.00%     88.81% # Class of committed instruction
system.cpu01.commit.op_class_0::SimdShaSigma2            0      0.00%     88.81% # Class of committed instruction
system.cpu01.commit.op_class_0::SimdShaSigma3            0      0.00%     88.81% # Class of committed instruction
system.cpu01.commit.op_class_0::SimdPredAlu            0      0.00%     88.81% # Class of committed instruction
system.cpu01.commit.op_class_0::MemRead        134301      9.25%     98.06% # Class of committed instruction
system.cpu01.commit.op_class_0::MemWrite         6300      0.43%     98.49% # Class of committed instruction
system.cpu01.commit.op_class_0::FloatMemRead        15641      1.08%     99.57% # Class of committed instruction
system.cpu01.commit.op_class_0::FloatMemWrite         6266      0.43%    100.00% # Class of committed instruction
system.cpu01.commit.op_class_0::IprAccess            0      0.00%    100.00% # Class of committed instruction
system.cpu01.commit.op_class_0::InstPrefetch            0      0.00%    100.00% # Class of committed instruction
system.cpu01.commit.op_class_0::total         1451869                       # Class of committed instruction
system.cpu01.commit.refs                       162508                       # Number of memory references committed
system.cpu01.commit.swp_count                       0                       # Number of s/w prefetches committed
system.cpu01.commit.vec_insts                       0                       # Number of committed Vector instructions.
system.cpu01.committedInsts                    867987                       # Number of Instructions Simulated
system.cpu01.committedOps                     1451869                       # Number of Ops (including micro ops) Simulated
system.cpu01.cpi                             4.226957                       # CPI: Cycles Per Instruction
system.cpu01.cpi_total                       4.226957                       # CPI: Total CPI of All Threads
system.cpu01.decode.BlockedCycles             3319260                       # Number of cycles decode is blocked
system.cpu01.decode.DecodedInsts              1846529                       # Number of instructions handled by decode
system.cpu01.decode.IdleCycles                  45027                       # Number of cycles decode is idle
system.cpu01.decode.RunCycles                  288384                       # Number of cycles decode is running
system.cpu01.decode.SquashCycles                 2877                       # Number of cycles decode is squashing
system.cpu01.decode.UnblockCycles               12156                       # Number of cycles decode is unblocking
system.cpu01.dtb.rdAccesses                    241256                       # TLB accesses on read requests
system.cpu01.dtb.rdMisses                          14                       # TLB misses on read requests
system.cpu01.dtb.wrAccesses                     30127                       # TLB accesses on write requests
system.cpu01.dtb.wrMisses                           1                       # TLB misses on write requests
system.cpu01.fetch.Branches                    237269                       # Number of branches that fetch encountered
system.cpu01.fetch.CacheLines                   69163                       # Number of cache lines fetched
system.cpu01.fetch.Cycles                     3591103                       # Number of cycles fetch has run and was not squashing or blocked
system.cpu01.fetch.IcacheSquashes                  22                       # Number of outstanding Icache misses that were squashed
system.cpu01.fetch.IcacheWaitRetryStallCycles           17                       # Number of stall cycles due to full MSHR
system.cpu01.fetch.Insts                      1235162                       # Number of instructions fetch has processed
system.cpu01.fetch.MiscStallCycles                 54                       # Number of cycles fetch has spent waiting on interrupts, or bad addresses, or out of MSHRs
system.cpu01.fetch.PendingTrapStallCycles          325                       # Number of stall cycles due to pending traps
system.cpu01.fetch.SquashCycles                  5754                       # Number of cycles fetch has spent squashing
system.cpu01.fetch.branchRate                0.064670                       # Number of branch fetches per cycle
system.cpu01.fetch.icacheStallCycles            73328                       # Number of cycles fetch is stalled on an Icache miss
system.cpu01.fetch.predictedBranches           118723                       # Number of branches that fetch has predicted taken
system.cpu01.fetch.rate                      0.336653                       # Number of inst fetches per cycle
system.cpu01.fetch.rateDist::samples          3667704                       # Number of instructions fetched each cycle (Total)
system.cpu01.fetch.rateDist::mean            0.539367                       # Number of instructions fetched each cycle (Total)
system.cpu01.fetch.rateDist::stdev           1.830313                       # Number of instructions fetched each cycle (Total)
system.cpu01.fetch.rateDist::underflows             0      0.00%      0.00% # Number of instructions fetched each cycle (Total)
system.cpu01.fetch.rateDist::0                3329546     90.78%     90.78% # Number of instructions fetched each cycle (Total)
system.cpu01.fetch.rateDist::1                  12100      0.33%     91.11% # Number of instructions fetched each cycle (Total)
system.cpu01.fetch.rateDist::2                  13599      0.37%     91.48% # Number of instructions fetched each cycle (Total)
system.cpu01.fetch.rateDist::3                  20862      0.57%     92.05% # Number of instructions fetched each cycle (Total)
system.cpu01.fetch.rateDist::4                 101839      2.78%     94.83% # Number of instructions fetched each cycle (Total)
system.cpu01.fetch.rateDist::5                   9108      0.25%     95.07% # Number of instructions fetched each cycle (Total)
system.cpu01.fetch.rateDist::6                   3554      0.10%     95.17% # Number of instructions fetched each cycle (Total)
system.cpu01.fetch.rateDist::7                  14633      0.40%     95.57% # Number of instructions fetched each cycle (Total)
system.cpu01.fetch.rateDist::8                 162463      4.43%    100.00% # Number of instructions fetched each cycle (Total)
system.cpu01.fetch.rateDist::overflows              0      0.00%    100.00% # Number of instructions fetched each cycle (Total)
system.cpu01.fetch.rateDist::min_value              0                       # Number of instructions fetched each cycle (Total)
system.cpu01.fetch.rateDist::max_value              8                       # Number of instructions fetched each cycle (Total)
system.cpu01.fetch.rateDist::total            3667704                       # Number of instructions fetched each cycle (Total)
system.cpu01.fp_regfile_reads                  156806                       # number of floating regfile reads
system.cpu01.fp_regfile_writes                 126615                       # number of floating regfile writes
system.cpu01.idleCycles                          1240                       # Total number of cycles that the CPU has spent unscheduled due to idling
system.cpu01.iew.branchMispredicts                174                       # Number of branch mispredicts detected at execute
system.cpu01.iew.exec_branches                 231985                       # Number of branches executed
system.cpu01.iew.exec_nop                           0                       # number of nop insts executed
system.cpu01.iew.exec_rate                   0.488345                       # Inst execution rate
system.cpu01.iew.exec_refs                     271392                       # number of memory reference insts executed
system.cpu01.iew.exec_stores                    30127                       # Number of stores executed
system.cpu01.iew.exec_swp                           0                       # number of swp insts executed
system.cpu01.iew.iewBlockCycles                 45388                       # Number of cycles IEW is blocking
system.cpu01.iew.iewDispLoadInsts              240050                       # Number of dispatched load instructions
system.cpu01.iew.iewDispNonSpecInsts               10                       # Number of dispatched non-speculative instructions
system.cpu01.iew.iewDispSquashedInsts              15                       # Number of squashed instructions skipped by dispatch
system.cpu01.iew.iewDispStoreInsts              39644                       # Number of dispatched store instructions
system.cpu01.iew.iewDispatchedInsts           1828280                       # Number of instructions dispatched to IQ
system.cpu01.iew.iewExecLoadInsts              241265                       # Number of load instructions executed
system.cpu01.iew.iewExecSquashedInsts             325                       # Number of squashed instructions skipped in execute
system.cpu01.iew.iewExecutedInsts             1791712                       # Number of executed instructions
system.cpu01.iew.iewIQFullEvents                    3                       # Number of times the IQ has become full, causing a stall
system.cpu01.iew.iewIdleCycles                      0                       # Number of cycles IEW is idle
system.cpu01.iew.iewLSQFullEvents             1364857                       # Number of times the LSQ has become full, causing a stall
system.cpu01.iew.iewSquashCycles                 2877                       # Number of cycles IEW is squashing
system.cpu01.iew.iewUnblockCycles             1364807                       # Number of cycles IEW is unblocking
system.cpu01.iew.lsq.thread0.blockedLoads            0                       # Number of blocked loads due to partial load-store forwarding
system.cpu01.iew.lsq.thread0.cacheBlocked            1                       # Number of times an access to memory failed due to the cache being blocked
system.cpu01.iew.lsq.thread0.forwLoads          22114                       # Number of loads that had data forwarded from stores
system.cpu01.iew.lsq.thread0.ignoredResponses            0                       # Number of memory responses ignored because the instruction is squashed
system.cpu01.iew.lsq.thread0.invAddrLoads            0                       # Number of loads ignored due to an invalid address
system.cpu01.iew.lsq.thread0.invAddrSwpfs            0                       # Number of software prefetches ignored due to an invalid address
system.cpu01.iew.lsq.thread0.memOrderViolation            7                       # Number of memory ordering violations
system.cpu01.iew.lsq.thread0.rescheduledLoads        14769                       # Number of loads that were rescheduled
system.cpu01.iew.lsq.thread0.squashedLoads        90107                       # Number of loads squashed
system.cpu01.iew.lsq.thread0.squashedStores        27078                       # Number of stores squashed
system.cpu01.iew.memOrderViolationEvents            7                       # Number of memory order violations
system.cpu01.iew.predictedNotTakenIncorrect          170                       # Number of branches that were predicted not taken incorrectly
system.cpu01.iew.predictedTakenIncorrect            4                       # Number of branches that were predicted taken incorrectly
system.cpu01.iew.wb_consumers                 1757820                       # num instructions consuming a value
system.cpu01.iew.wb_count                     1775204                       # cumulative count of insts written-back
system.cpu01.iew.wb_fanout                   0.755783                       # average fanout of values written-back
system.cpu01.iew.wb_producers                 1328531                       # num instructions producing a value
system.cpu01.iew.wb_rate                     0.483846                       # insts written-back per cycle
system.cpu01.iew.wb_sent                      1776866                       # cumulative count of insts sent to commit
system.cpu01.int_regfile_reads                2046868                       # number of integer regfile reads
system.cpu01.int_regfile_writes               1291464                       # number of integer regfile writes
system.cpu01.ipc                             0.236577                       # IPC: Instructions Per Cycle
system.cpu01.ipc_total                       0.236577                       # IPC: Total IPC of All Threads
system.cpu01.iq.FU_type_0::No_OpClass              90      0.01%      0.01% # Type of FU issued
system.cpu01.iq.FU_type_0::IntAlu             1419196     79.19%     79.20% # Type of FU issued
system.cpu01.iq.FU_type_0::IntMult               9799      0.55%     79.75% # Type of FU issued
system.cpu01.iq.FU_type_0::IntDiv                   7      0.00%     79.75% # Type of FU issued
system.cpu01.iq.FU_type_0::FloatAdd             27162      1.52%     81.26% # Type of FU issued
system.cpu01.iq.FU_type_0::FloatCmp                 0      0.00%     81.26% # Type of FU issued
system.cpu01.iq.FU_type_0::FloatCvt                 0      0.00%     81.26% # Type of FU issued
system.cpu01.iq.FU_type_0::FloatMult                0      0.00%     81.26% # Type of FU issued
system.cpu01.iq.FU_type_0::FloatMultAcc             0      0.00%     81.26% # Type of FU issued
system.cpu01.iq.FU_type_0::FloatDiv                 0      0.00%     81.26% # Type of FU issued
system.cpu01.iq.FU_type_0::FloatMisc                0      0.00%     81.26% # Type of FU issued
system.cpu01.iq.FU_type_0::FloatSqrt                0      0.00%     81.26% # Type of FU issued
system.cpu01.iq.FU_type_0::SimdAdd                  0      0.00%     81.26% # Type of FU issued
system.cpu01.iq.FU_type_0::SimdAddAcc               0      0.00%     81.26% # Type of FU issued
system.cpu01.iq.FU_type_0::SimdAlu              34674      1.93%     83.20% # Type of FU issued
system.cpu01.iq.FU_type_0::SimdCmp                  0      0.00%     83.20% # Type of FU issued
system.cpu01.iq.FU_type_0::SimdCvt                  0      0.00%     83.20% # Type of FU issued
system.cpu01.iq.FU_type_0::SimdMisc                 0      0.00%     83.20% # Type of FU issued
system.cpu01.iq.FU_type_0::SimdMult                 0      0.00%     83.20% # Type of FU issued
system.cpu01.iq.FU_type_0::SimdMultAcc              0      0.00%     83.20% # Type of FU issued
system.cpu01.iq.FU_type_0::SimdShift                0      0.00%     83.20% # Type of FU issued
system.cpu01.iq.FU_type_0::SimdShiftAcc             0      0.00%     83.20% # Type of FU issued
system.cpu01.iq.FU_type_0::SimdDiv                  0      0.00%     83.20% # Type of FU issued
system.cpu01.iq.FU_type_0::SimdSqrt                 0      0.00%     83.20% # Type of FU issued
system.cpu01.iq.FU_type_0::SimdFloatAdd         17738      0.99%     84.19% # Type of FU issued
system.cpu01.iq.FU_type_0::SimdFloatAlu             0      0.00%     84.19% # Type of FU issued
system.cpu01.iq.FU_type_0::SimdFloatCmp             0      0.00%     84.19% # Type of FU issued
system.cpu01.iq.FU_type_0::SimdFloatCvt         11897      0.66%     84.85% # Type of FU issued
system.cpu01.iq.FU_type_0::SimdFloatDiv             0      0.00%     84.85% # Type of FU issued
system.cpu01.iq.FU_type_0::SimdFloatMisc            0      0.00%     84.85% # Type of FU issued
system.cpu01.iq.FU_type_0::SimdFloatMult            0      0.00%     84.85% # Type of FU issued
system.cpu01.iq.FU_type_0::SimdFloatMultAcc            0      0.00%     84.85% # Type of FU issued
system.cpu01.iq.FU_type_0::SimdFloatSqrt            0      0.00%     84.85% # Type of FU issued
system.cpu01.iq.FU_type_0::SimdReduceAdd            0      0.00%     84.85% # Type of FU issued
system.cpu01.iq.FU_type_0::SimdReduceAlu            0      0.00%     84.85% # Type of FU issued
system.cpu01.iq.FU_type_0::SimdReduceCmp            0      0.00%     84.85% # Type of FU issued
system.cpu01.iq.FU_type_0::SimdFloatReduceAdd            0      0.00%     84.85% # Type of FU issued
system.cpu01.iq.FU_type_0::SimdFloatReduceCmp            0      0.00%     84.85% # Type of FU issued
system.cpu01.iq.FU_type_0::SimdAes                  0      0.00%     84.85% # Type of FU issued
system.cpu01.iq.FU_type_0::SimdAesMix               0      0.00%     84.85% # Type of FU issued
system.cpu01.iq.FU_type_0::SimdSha1Hash             0      0.00%     84.85% # Type of FU issued
system.cpu01.iq.FU_type_0::SimdSha1Hash2            0      0.00%     84.85% # Type of FU issued
system.cpu01.iq.FU_type_0::SimdSha256Hash            0      0.00%     84.85% # Type of FU issued
system.cpu01.iq.FU_type_0::SimdSha256Hash2            0      0.00%     84.85% # Type of FU issued
system.cpu01.iq.FU_type_0::SimdShaSigma2            0      0.00%     84.85% # Type of FU issued
system.cpu01.iq.FU_type_0::SimdShaSigma3            0      0.00%     84.85% # Type of FU issued
system.cpu01.iq.FU_type_0::SimdPredAlu              0      0.00%     84.85% # Type of FU issued
system.cpu01.iq.FU_type_0::MemRead             191467     10.68%     95.54% # Type of FU issued
system.cpu01.iq.FU_type_0::MemWrite             19687      1.10%     96.63% # Type of FU issued
system.cpu01.iq.FU_type_0::FloatMemRead         49871      2.78%     99.42% # Type of FU issued
system.cpu01.iq.FU_type_0::FloatMemWrite        10450      0.58%    100.00% # Type of FU issued
system.cpu01.iq.FU_type_0::IprAccess                0      0.00%    100.00% # Type of FU issued
system.cpu01.iq.FU_type_0::InstPrefetch             0      0.00%    100.00% # Type of FU issued
system.cpu01.iq.FU_type_0::total              1792038                       # Type of FU issued
system.cpu01.iq.fp_alu_accesses                151799                       # Number of floating point alu accesses
system.cpu01.iq.fp_inst_queue_reads            303591                       # Number of floating instruction queue reads
system.cpu01.iq.fp_inst_queue_wakeup_accesses       135841                       # Number of floating instruction queue wakeup accesses
system.cpu01.iq.fp_inst_queue_writes           311763                       # Number of floating instruction queue writes
system.cpu01.iq.fu_busy_cnt                      1332                       # FU busy when requested
system.cpu01.iq.fu_busy_rate                 0.000743                       # FU busy rate (busy events/executed inst)
system.cpu01.iq.fu_full::No_OpClass                 0      0.00%      0.00% # attempts to use FU when none available
system.cpu01.iq.fu_full::IntAlu                  1311     98.42%     98.42% # attempts to use FU when none available
system.cpu01.iq.fu_full::IntMult                    0      0.00%     98.42% # attempts to use FU when none available
system.cpu01.iq.fu_full::IntDiv                     0      0.00%     98.42% # attempts to use FU when none available
system.cpu01.iq.fu_full::FloatAdd                   0      0.00%     98.42% # attempts to use FU when none available
system.cpu01.iq.fu_full::FloatCmp                   0      0.00%     98.42% # attempts to use FU when none available
system.cpu01.iq.fu_full::FloatCvt                   0      0.00%     98.42% # attempts to use FU when none available
system.cpu01.iq.fu_full::FloatMult                  0      0.00%     98.42% # attempts to use FU when none available
system.cpu01.iq.fu_full::FloatMultAcc               0      0.00%     98.42% # attempts to use FU when none available
system.cpu01.iq.fu_full::FloatDiv                   0      0.00%     98.42% # attempts to use FU when none available
system.cpu01.iq.fu_full::FloatMisc                  0      0.00%     98.42% # attempts to use FU when none available
system.cpu01.iq.fu_full::FloatSqrt                  0      0.00%     98.42% # attempts to use FU when none available
system.cpu01.iq.fu_full::SimdAdd                    0      0.00%     98.42% # attempts to use FU when none available
system.cpu01.iq.fu_full::SimdAddAcc                 0      0.00%     98.42% # attempts to use FU when none available
system.cpu01.iq.fu_full::SimdAlu                    0      0.00%     98.42% # attempts to use FU when none available
system.cpu01.iq.fu_full::SimdCmp                    0      0.00%     98.42% # attempts to use FU when none available
system.cpu01.iq.fu_full::SimdCvt                    0      0.00%     98.42% # attempts to use FU when none available
system.cpu01.iq.fu_full::SimdMisc                   0      0.00%     98.42% # attempts to use FU when none available
system.cpu01.iq.fu_full::SimdMult                   0      0.00%     98.42% # attempts to use FU when none available
system.cpu01.iq.fu_full::SimdMultAcc                0      0.00%     98.42% # attempts to use FU when none available
system.cpu01.iq.fu_full::SimdShift                  0      0.00%     98.42% # attempts to use FU when none available
system.cpu01.iq.fu_full::SimdShiftAcc               0      0.00%     98.42% # attempts to use FU when none available
system.cpu01.iq.fu_full::SimdDiv                    0      0.00%     98.42% # attempts to use FU when none available
system.cpu01.iq.fu_full::SimdSqrt                   0      0.00%     98.42% # attempts to use FU when none available
system.cpu01.iq.fu_full::SimdFloatAdd               0      0.00%     98.42% # attempts to use FU when none available
system.cpu01.iq.fu_full::SimdFloatAlu               0      0.00%     98.42% # attempts to use FU when none available
system.cpu01.iq.fu_full::SimdFloatCmp               0      0.00%     98.42% # attempts to use FU when none available
system.cpu01.iq.fu_full::SimdFloatCvt               0      0.00%     98.42% # attempts to use FU when none available
system.cpu01.iq.fu_full::SimdFloatDiv               0      0.00%     98.42% # attempts to use FU when none available
system.cpu01.iq.fu_full::SimdFloatMisc              0      0.00%     98.42% # attempts to use FU when none available
system.cpu01.iq.fu_full::SimdFloatMult              0      0.00%     98.42% # attempts to use FU when none available
system.cpu01.iq.fu_full::SimdFloatMultAcc            0      0.00%     98.42% # attempts to use FU when none available
system.cpu01.iq.fu_full::SimdFloatSqrt              0      0.00%     98.42% # attempts to use FU when none available
system.cpu01.iq.fu_full::SimdReduceAdd              0      0.00%     98.42% # attempts to use FU when none available
system.cpu01.iq.fu_full::SimdReduceAlu              0      0.00%     98.42% # attempts to use FU when none available
system.cpu01.iq.fu_full::SimdReduceCmp              0      0.00%     98.42% # attempts to use FU when none available
system.cpu01.iq.fu_full::SimdFloatReduceAdd            0      0.00%     98.42% # attempts to use FU when none available
system.cpu01.iq.fu_full::SimdFloatReduceCmp            0      0.00%     98.42% # attempts to use FU when none available
system.cpu01.iq.fu_full::SimdAes                    0      0.00%     98.42% # attempts to use FU when none available
system.cpu01.iq.fu_full::SimdAesMix                 0      0.00%     98.42% # attempts to use FU when none available
system.cpu01.iq.fu_full::SimdSha1Hash               0      0.00%     98.42% # attempts to use FU when none available
system.cpu01.iq.fu_full::SimdSha1Hash2              0      0.00%     98.42% # attempts to use FU when none available
system.cpu01.iq.fu_full::SimdSha256Hash             0      0.00%     98.42% # attempts to use FU when none available
system.cpu01.iq.fu_full::SimdSha256Hash2            0      0.00%     98.42% # attempts to use FU when none available
system.cpu01.iq.fu_full::SimdShaSigma2              0      0.00%     98.42% # attempts to use FU when none available
system.cpu01.iq.fu_full::SimdShaSigma3              0      0.00%     98.42% # attempts to use FU when none available
system.cpu01.iq.fu_full::SimdPredAlu                0      0.00%     98.42% # attempts to use FU when none available
system.cpu01.iq.fu_full::MemRead                    9      0.68%     99.10% # attempts to use FU when none available
system.cpu01.iq.fu_full::MemWrite                   5      0.38%     99.47% # attempts to use FU when none available
system.cpu01.iq.fu_full::FloatMemRead               3      0.23%     99.70% # attempts to use FU when none available
system.cpu01.iq.fu_full::FloatMemWrite              4      0.30%    100.00% # attempts to use FU when none available
system.cpu01.iq.fu_full::IprAccess                  0      0.00%    100.00% # attempts to use FU when none available
system.cpu01.iq.fu_full::InstPrefetch               0      0.00%    100.00% # attempts to use FU when none available
system.cpu01.iq.int_alu_accesses              1641481                       # Number of integer alu accesses
system.cpu01.iq.int_inst_queue_reads          6949529                       # Number of integer instruction queue reads
system.cpu01.iq.int_inst_queue_wakeup_accesses      1639363                       # Number of integer instruction queue wakeup accesses
system.cpu01.iq.int_inst_queue_writes         1892925                       # Number of integer instruction queue writes
system.cpu01.iq.iqInstsAdded                  1828258                       # Number of instructions added to the IQ (excludes non-spec)
system.cpu01.iq.iqInstsIssued                 1792038                       # Number of instructions issued
[...]
system.mem_ctrls.rdQLenPdf::7                       0                       # What read queue length does an incoming req see
system.mem_ctrls.rdQLenPdf::8                       0                       # What read queue length does an incoming req see
system.mem_ctrls.rdQLenPdf::9                       0                       # What read queue length does an incoming req see
system.mem_ctrls.rdQLenPdf::10                      0                       # What read queue length does an incoming req see
system.mem_ctrls.rdQLenPdf::11                      0                       # What read queue length does an incoming req see
system.mem_ctrls.rdQLenPdf::12                      0                       # What read queue length does an incoming req see
system.mem_ctrls.rdQLenPdf::13                      0                       # What read queue length does an incoming req see
system.mem_ctrls.rdQLenPdf::14                      0                       # What read queue length does an incoming req see
system.mem_ctrls.rdQLenPdf::15                      0                       # What read queue length does an incoming req see
system.mem_ctrls.rdQLenPdf::16                      0                       # What read queue length does an incoming req see
system.mem_ctrls.rdQLenPdf::17                      0                       # What read queue length does an incoming req see
system.mem_ctrls.rdQLenPdf::18                      0                       # What read queue length does an incoming req see
system.mem_ctrls.rdQLenPdf::19                      0                       # What read queue length does an incoming req see
system.mem_ctrls.rdQLenPdf::20                      0                       # What read queue length does an incoming req see
system.mem_ctrls.rdQLenPdf::21                      0                       # What read queue length does an incoming req see
system.mem_ctrls.rdQLenPdf::22                      0                       # What read queue length does an incoming req see
system.mem_ctrls.rdQLenPdf::23                      0                       # What read queue length does an incoming req see
system.mem_ctrls.rdQLenPdf::24                      0                       # What read queue length does an incoming req see
system.mem_ctrls.rdQLenPdf::25                      0                       # What read queue length does an incoming req see
system.mem_ctrls.rdQLenPdf::26                      0                       # What read queue length does an incoming req see
system.mem_ctrls.rdQLenPdf::27                      0                       # What read queue length does an incoming req see
system.mem_ctrls.rdQLenPdf::28                      0                       # What read queue length does an incoming req see
system.mem_ctrls.rdQLenPdf::29                      0                       # What read queue length does an incoming req see
system.mem_ctrls.rdQLenPdf::30                      0                       # What read queue length does an incoming req see
system.mem_ctrls.rdQLenPdf::31                      0                       # What read queue length does an incoming req see
system.mem_ctrls.wrQLenPdf::0                       0                       # What write queue length does an incoming req see
system.mem_ctrls.wrQLenPdf::1                       0                       # What write queue length does an incoming req see
system.mem_ctrls.wrQLenPdf::2                       0                       # What write queue length does an incoming req see
system.mem_ctrls.wrQLenPdf::3                       0                       # What write queue length does an incoming req see
system.mem_ctrls.wrQLenPdf::4                       0                       # What write queue length does an incoming req see
system.mem_ctrls.wrQLenPdf::5                       0                       # What write queue length does an incoming req see
system.mem_ctrls.wrQLenPdf::6                       0                       # What write queue length does an incoming req see
system.mem_ctrls.wrQLenPdf::7                       0                       # What write queue length does an incoming req see
system.mem_ctrls.wrQLenPdf::8                       0                       # What write queue length does an incoming req see
system.mem_ctrls.wrQLenPdf::9                       0                       # What write queue length does an incoming req see
system.mem_ctrls.wrQLenPdf::10                      0                       # What write queue length does an incoming req see
system.mem_ctrls.wrQLenPdf::11                      0                       # What write queue length does an incoming req see
system.mem_ctrls.wrQLenPdf::12                      0                       # What write queue length does an incoming req see
system.mem_ctrls.wrQLenPdf::13                      0                       # What write queue length does an incoming req see
system.mem_ctrls.wrQLenPdf::14                      0                       # What write queue length does an incoming req see
system.mem_ctrls.wrQLenPdf::15                      0                       # What write queue length does an incoming req see
system.mem_ctrls.wrQLenPdf::16                      0                       # What write queue length does an incoming req see
system.mem_ctrls.wrQLenPdf::17                      0                       # What write queue length does an incoming req see
system.mem_ctrls.wrQLenPdf::18                      0                       # What write queue length does an incoming req see
system.mem_ctrls.wrQLenPdf::19                      0                       # What write queue length does an incoming req see
system.mem_ctrls.wrQLenPdf::20                      0                       # What write queue length does an incoming req see
system.mem_ctrls.wrQLenPdf::21                      0                       # What write queue length does an incoming req see
system.mem_ctrls.wrQLenPdf::22                      0                       # What write queue length does an incoming req see
system.mem_ctrls.wrQLenPdf::23                      0                       # What write queue length does an incoming req see
system.mem_ctrls.wrQLenPdf::24                      0                       # What write queue length does an incoming req see
system.mem_ctrls.wrQLenPdf::25                      0                       # What write queue length does an incoming req see
system.mem_ctrls.wrQLenPdf::26                      0                       # What write queue length does an incoming req see
system.mem_ctrls.wrQLenPdf::27                      0                       # What write queue length does an incoming req see
system.mem_ctrls.wrQLenPdf::28                      0                       # What write queue length does an incoming req see
system.mem_ctrls.wrQLenPdf::29                      0                       # What write queue length does an incoming req see
system.mem_ctrls.wrQLenPdf::30                      0                       # What write queue length does an incoming req see
system.mem_ctrls.wrQLenPdf::31                      0                       # What write queue length does an incoming req see
system.mem_ctrls.wrQLenPdf::32                      0                       # What write queue length does an incoming req see
system.mem_ctrls.wrQLenPdf::33                      0                       # What write queue length does an incoming req see
system.mem_ctrls.wrQLenPdf::34                      0                       # What write queue length does an incoming req see
system.mem_ctrls.wrQLenPdf::35                      0                       # What write queue length does an incoming req see
system.mem_ctrls.wrQLenPdf::36                      0                       # What write queue length does an incoming req see
system.mem_ctrls.wrQLenPdf::37                      0                       # What write queue length does an incoming req see
system.mem_ctrls.wrQLenPdf::38                      0                       # What write queue length does an incoming req see
system.mem_ctrls.wrQLenPdf::39                      0                       # What write queue length does an incoming req see
system.mem_ctrls.wrQLenPdf::40                      0                       # What write queue length does an incoming req see
system.mem_ctrls.wrQLenPdf::41                      0                       # What write queue length does an incoming req see
system.mem_ctrls.wrQLenPdf::42                      0                       # What write queue length does an incoming req see
system.mem_ctrls.wrQLenPdf::43                      0                       # What write queue length does an incoming req see
system.mem_ctrls.wrQLenPdf::44                      0                       # What write queue length does an incoming req see
system.mem_ctrls.wrQLenPdf::45                      0                       # What write queue length does an incoming req see
system.mem_ctrls.wrQLenPdf::46                      0                       # What write queue length does an incoming req see
system.mem_ctrls.wrQLenPdf::47                      0                       # What write queue length does an incoming req see
system.mem_ctrls.wrQLenPdf::48                      0                       # What write queue length does an incoming req see
system.mem_ctrls.wrQLenPdf::49                      0                       # What write queue length does an incoming req see
system.mem_ctrls.wrQLenPdf::50                      0                       # What write queue length does an incoming req see
system.mem_ctrls.wrQLenPdf::51                      0                       # What write queue length does an incoming req see
system.mem_ctrls.wrQLenPdf::52                      0                       # What write queue length does an incoming req see
system.mem_ctrls.wrQLenPdf::53                      0                       # What write queue length does an incoming req see
system.mem_ctrls.wrQLenPdf::54                      0                       # What write queue length does an incoming req see
system.mem_ctrls.wrQLenPdf::55                      0                       # What write queue length does an incoming req see
system.mem_ctrls.wrQLenPdf::56                      0                       # What write queue length does an incoming req see
system.mem_ctrls.wrQLenPdf::57                      0                       # What write queue length does an incoming req see
system.mem_ctrls.wrQLenPdf::58                      0                       # What write queue length does an incoming req see
system.mem_ctrls.wrQLenPdf::59                      0                       # What write queue length does an incoming req see
system.mem_ctrls.wrQLenPdf::60                      0                       # What write queue length does an incoming req see
system.mem_ctrls.wrQLenPdf::61                      0                       # What write queue length does an incoming req see
system.mem_ctrls.wrQLenPdf::62                      0                       # What write queue length does an incoming req see
system.mem_ctrls.wrQLenPdf::63                      0                       # What write queue length does an incoming req see
system.mem_ctrls.bytesPerActivate::samples          625                       # Bytes accessed per row activation
system.mem_ctrls.bytesPerActivate::mean    232.038400                       # Bytes accessed per row activation
system.mem_ctrls.bytesPerActivate::gmean   146.627003                       # Bytes accessed per row activation
system.mem_ctrls.bytesPerActivate::stdev   262.311810                       # Bytes accessed per row activation
system.mem_ctrls.bytesPerActivate::0-127          277     44.32%     44.32% # Bytes accessed per row activation
system.mem_ctrls.bytesPerActivate::128-255          146     23.36%     67.68% # Bytes accessed per row activation
system.mem_ctrls.bytesPerActivate::256-383           84     13.44%     81.12% # Bytes accessed per row activation
system.mem_ctrls.bytesPerActivate::384-511           46      7.36%     88.48% # Bytes accessed per row activation
system.mem_ctrls.bytesPerActivate::512-639           10      1.60%     90.08% # Bytes accessed per row activation
system.mem_ctrls.bytesPerActivate::640-767            8      1.28%     91.36% # Bytes accessed per row activation
system.mem_ctrls.bytesPerActivate::768-895           11      1.76%     93.12% # Bytes accessed per row activation
system.mem_ctrls.bytesPerActivate::896-1023            4      0.64%     93.76% # Bytes accessed per row activation
system.mem_ctrls.bytesPerActivate::1024-1151           39      6.24%    100.00% # Bytes accessed per row activation
system.mem_ctrls.bytesPerActivate::total          625                       # Bytes accessed per row activation
system.mem_ctrls.bytesReadDRAM                 146752                       # Total number of bytes read from DRAM
system.mem_ctrls.bytesReadWrQ                       0                       # Total number of bytes read from write queue
system.mem_ctrls.bytesWritten                       0                       # Total number of bytes written to DRAM
system.mem_ctrls.bytesReadSys                  146752                       # Total read bytes from the system interface side
system.mem_ctrls.bytesWrittenSys                    0                       # Total written bytes from the system interface side
system.mem_ctrls.avgRdBW                        76.19                       # Average DRAM read bandwidth in MiByte/s
system.mem_ctrls.avgWrBW                         0.00                       # Average achieved write bandwidth in MiByte/s
system.mem_ctrls.avgRdBWSys                     76.19                       # Average system read bandwidth in MiByte/s
system.mem_ctrls.avgWrBWSys                      0.00                       # Average system write bandwidth in MiByte/s
system.mem_ctrls.peakBW                      12800.00                       # Theoretical peak bandwidth in MiByte/s
system.mem_ctrls.busUtil                         0.60                       # Data bus utilization in percentage
system.mem_ctrls.busUtilRead                     0.60                       # Data bus utilization in percentage for reads
system.mem_ctrls.busUtilWrite                    0.00                       # Data bus utilization in percentage for writes
system.mem_ctrls.totGap                    1925961000                       # Total gap between requests
system.mem_ctrls.avgGap                     839930.66                       # Average gap between requests
system.mem_ctrls.masterReadBytes::.ruby.dir_cntrl0       146752                       # Per-master bytes read from memory
system.mem_ctrls.masterReadRate::.ruby.dir_cntrl0 76192988.108085095882                       # Per-master bytes read from memory rate (Bytes/sec)
system.mem_ctrls.masterReadAccesses::.ruby.dir_cntrl0         2293                       # Per-master read serviced memory accesses
system.mem_ctrls.masterReadTotalLat::.ruby.dir_cntrl0     70113483                       # Per-master read total memory access latency
system.mem_ctrls.masterReadAvgLat::.ruby.dir_cntrl0     30577.18                       # Per-master read average memory access latency
system.mem_ctrls.pageHitRate                    72.26                       # Row buffer hit rate, read and write combined
system.mem_ctrls.rank1.actEnergy              1763580                       # Energy for activate commands per rank (pJ)
system.mem_ctrls.rank1.preEnergy               925980                       # Energy for precharge commands per rank (pJ)
system.mem_ctrls.rank1.readEnergy             6318900                       # Energy for read commands per rank (pJ)
system.mem_ctrls.rank1.writeEnergy                  0                       # Energy for write commands per rank (pJ)
system.mem_ctrls.rank1.refreshEnergy     151816080.000000                       # Energy for refresh commands per rank (pJ)
system.mem_ctrls.rank1.actBackEnergy         73821840                       # Energy for active background per rank (pJ)
system.mem_ctrls.rank1.preBackEnergy        677440320                       # Energy for precharge background per rank (pJ)
system.mem_ctrls.rank1.actPowerDownEnergy            0                       # Energy for active power-down per rank (pJ)
system.mem_ctrls.rank1.prePowerDownEnergy            0                       # Energy for precharge power-down per rank (pJ)
system.mem_ctrls.rank1.selfRefreshEnergy            0                       # Energy for self refresh per rank (pJ)
system.mem_ctrls.rank1.totalEnergy          912086700                       # Total energy per rank (pJ)
system.mem_ctrls.rank1.averagePower        473.551373                       # Core power per rank (mW)
system.mem_ctrls.rank1.totalIdleTime                0                       # Total Idle time Per DRAM Rank
system.mem_ctrls.rank1.memoryStateTime::IDLE   1760500000                       # Time in different power states
system.mem_ctrls.rank1.memoryStateTime::REF     64220000                       # Time in different power states
system.mem_ctrls.rank1.memoryStateTime::SREF            0                       # Time in different power states
system.mem_ctrls.rank1.memoryStateTime::PRE_PDN            0                       # Time in different power states
system.mem_ctrls.rank1.memoryStateTime::ACT    101336500                       # Time in different power states
system.mem_ctrls.rank1.memoryStateTime::ACT_PDN            0                       # Time in different power states
system.mem_ctrls.rank0.actEnergy              2777460                       # Energy for activate commands per rank (pJ)
system.mem_ctrls.rank0.preEnergy              1445895                       # Energy for precharge commands per rank (pJ)
system.mem_ctrls.rank0.readEnergy            10053120                       # Energy for read commands per rank (pJ)
system.mem_ctrls.rank0.writeEnergy                  0                       # Energy for write commands per rank (pJ)
system.mem_ctrls.rank0.refreshEnergy     151816080.000000                       # Energy for refresh commands per rank (pJ)
system.mem_ctrls.rank0.actBackEnergy         78422880                       # Energy for active background per rank (pJ)
system.mem_ctrls.rank0.preBackEnergy        673565760                       # Energy for precharge background per rank (pJ)
system.mem_ctrls.rank0.actPowerDownEnergy            0                       # Energy for active power-down per rank (pJ)
system.mem_ctrls.rank0.prePowerDownEnergy            0                       # Energy for precharge power-down per rank (pJ)
system.mem_ctrls.rank0.selfRefreshEnergy            0                       # Energy for self refresh per rank (pJ)
system.mem_ctrls.rank0.totalEnergy          918081195                       # Total energy per rank (pJ)
system.mem_ctrls.rank0.averagePower        476.663688                       # Core power per rank (mW)
system.mem_ctrls.rank0.totalIdleTime                0                       # Total Idle time Per DRAM Rank
system.mem_ctrls.rank0.memoryStateTime::IDLE   1750278750                       # Time in different power states
system.mem_ctrls.rank0.memoryStateTime::REF     64220000                       # Time in different power states
system.mem_ctrls.rank0.memoryStateTime::SREF            0                       # Time in different power states
system.mem_ctrls.rank0.memoryStateTime::PRE_PDN            0                       # Time in different power states
system.mem_ctrls.rank0.memoryStateTime::ACT    111557750                       # Time in different power states
system.mem_ctrls.rank0.memoryStateTime::ACT_PDN            0                       # Time in different power states

---------- End Simulation Statistics   ----------
