
---------- Begin Simulation Statistics ----------
final_tick                                 2452007500                       # Number of ticks from beginning of simulation (restored from checkpoints and never reset)
host_inst_rate                                  21069                       # Simulator instruction rate (inst/s)
host_mem_usage                                1018060                       # Number of bytes of host memory used
host_op_rate                                    32957                       # Simulator op (including micro ops) rate (op/s)
host_seconds                                   358.96                       # Real time elapsed on the host
host_tick_rate                                6830803                       # Simulator tick rate (ticks/s)
sim_freq                                 1000000000000                       # Frequency of simulated ticks
sim_insts                                     7562950                       # Number of instructions simulated
sim_ops                                      11830311                       # Number of ops (including micro ops) simulated
sim_seconds                                  0.002452                       # Number of seconds simulated
sim_ticks                                  2452007500                       # Number of ticks simulated
system.cpu00.branchPred.BTBCorrect                  0                       # Number of correct BTB predictions (this stat may not work properly.
system.cpu00.branchPred.BTBHitPct            0.000000                       # BTB Hit Percentage
system.cpu00.branchPred.BTBHits                     0                       # Number of BTB hits
system.cpu00.branchPred.BTBLookups              51314                       # Number of BTB lookups
system.cpu00.branchPred.RASInCorrect                7                       # Number of incorrect RAS predictions.
system.cpu00.branchPred.condIncorrect            2261                       # Number of conditional branches incorrect
system.cpu00.branchPred.condPredicted           49006                       # Number of conditional branches predicted
system.cpu00.branchPred.indirectHits            21136                       # Number of indirect target hits.
system.cpu00.branchPred.indirectLookups         51314                       # Number of indirect predictor lookups.
system.cpu00.branchPred.indirectMisses          30178                       # Number of indirect misses.
system.cpu00.branchPred.lookups                 57162                       # Number of BP lookups
system.cpu00.branchPred.usedRAS                  3465                       # Number of times the RAS was used to get a target.
system.cpu00.branchPredindirectMispredicted         2004                       # Number of mispredicted indirect branches.
system.cpu00.cc_regfile_reads                  141609                       # number of cc regfile reads
system.cpu00.cc_regfile_writes                 209269                       # number of cc regfile writes
system.cpu00.commit.amos                            0                       # Number of atomic instructions committed
system.cpu00.commit.branchMispredicts            2376                       # The number of times a branch was mispredicted
system.cpu00.commit.branches                    23658                       # Number of branches committed
system.cpu00.commit.bw_lim_events               23540                       # number cycles where commit BW limit reached
system.cpu00.commit.commitNonSpecStalls           569                       # The number of times commit has been forced to stall to communicate backwards
system.cpu00.commit.commitSquashedInsts        471119                       # The number of squashed insts skipped by commit
system.cpu00.commit.committedInsts             197592                       # Number of instructions committed
system.cpu00.commit.committedOps               323349                       # Number of ops (including micro ops) committed
system.cpu00.commit.committed_per_cycle::samples      3082505                       # Number of insts commited each cycle
system.cpu00.commit.committed_per_cycle::mean     0.104898                       # Number of insts commited each cycle
system.cpu00.commit.committed_per_cycle::stdev     0.794707                       # Number of insts commited each cycle
system.cpu00.commit.committed_per_cycle::underflows            0      0.00%      0.00% # Number of insts commited each cycle
system.cpu00.commit.committed_per_cycle::0      3000890     97.35%     97.35% # Number of insts commited each cycle
system.cpu00.commit.committed_per_cycle::1        25998      0.84%     98.20% # Number of insts commited each cycle
system.cpu00.commit.committed_per_cycle::2        11965      0.39%     98.58% # Number of insts commited each cycle
system.cpu00.commit.committed_per_cycle::3         8670      0.28%     98.87% # Number of insts commited each cycle
system.cpu00.commit.committed_per_cycle::4         4788      0.16%     99.02% # Number of insts commited each cycle
system.cpu00.commit.committed_per_cycle::5         2953      0.10%     99.12% # Number of insts commited each cycle
system.cpu00.commit.committed_per_cycle::6          733      0.02%     99.14% # Number of insts commited each cycle
system.cpu00.commit.committed_per_cycle::7         2968      0.10%     99.24% # Number of insts commited each cycle
system.cpu00.commit.committed_per_cycle::8        23540      0.76%    100.00% # Number of insts commited each cycle
system.cpu00.commit.committed_per_cycle::overflows            0      0.00%    100.00% # Number of insts commited each cycle
system.cpu00.commit.committed_per_cycle::min_value            0                       # Number of insts commited each cycle
system.cpu00.commit.committed_per_cycle::max_value            8                       # Number of insts commited each cycle
system.cpu00.commit.committed_per_cycle::total      3082505                       # Number of insts commited each cycle
system.cpu00.commit.fp_insts                    62810                       # Number of committed floating point instructions.
system.cpu00.commit.function_calls               2080                       # Number of function calls committed.
system.cpu00.commit.int_insts                  283533                       # Number of committed integer instructions.
system.cpu00.commit.loads                       60776                       # Number of loads committed
system.cpu00.commit.membars                       322                       # Number of memory barriers committed
system.cpu00.commit.op_class_0::No_OpClass          374      0.12%      0.12% # Class of committed instruction
system.cpu00.commit.op_class_0::IntAlu         193988     59.99%     60.11% # Class of committed instruction
system.cpu00.commit.op_class_0::IntMult          3263      1.01%     61.12% # Class of committed instruction
system.cpu00.commit.op_class_0::IntDiv             21      0.01%     61.12% # Class of committed instruction
system.cpu00.commit.op_class_0::FloatAdd         9416      2.91%     64.04% # Class of committed instruction
system.cpu00.commit.op_class_0::FloatCmp            0      0.00%     64.04% # Class of committed instruction
system.cpu00.commit.op_class_0::FloatCvt            0      0.00%     64.04% # Class of committed instruction
system.cpu00.commit.op_class_0::FloatMult            0      0.00%     64.04% # Class of committed instruction
system.cpu00.commit.op_class_0::FloatMultAcc            0      0.00%     64.04% # Class of committed instruction
system.cpu00.commit.op_class_0::FloatDiv            0      0.00%     64.04% # Class of committed instruction
system.cpu00.commit.op_class_0::FloatMisc            0      0.00%     64.04% # Class of committed instruction
system.cpu00.commit.op_class_0::FloatSqrt            0      0.00%     64.04% # Class of committed instruction
system.cpu00.commit.op_class_0::SimdAdd            16      0.00%     64.04% # Class of committed instruction
system.cpu00.commit.op_class_0::SimdAddAcc            0      0.00%     64.04% # Class of committed instruction
system.cpu00.commit.op_class_0::SimdAlu         13424      4.15%     68.19% # Class of committed instruction
system.cpu00.commit.op_class_0::SimdCmp             0      0.00%     68.19% # Class of committed instruction
system.cpu00.commit.op_class_0::SimdCvt           342      0.11%     68.30% # Class of committed instruction
system.cpu00.commit.op_class_0::SimdMisc          393      0.12%     68.42% # Class of committed instruction
system.cpu00.commit.op_class_0::SimdMult            0      0.00%     68.42% # Class of committed instruction
system.cpu00.commit.op_class_0::SimdMultAcc            0      0.00%     68.42% # Class of committed instruction
system.cpu00.commit.op_class_0::SimdShift            0      0.00%     68.42% # Class of committed instruction
system.cpu00.commit.op_class_0::SimdShiftAcc            0      0.00%     68.42% # Class of committed instruction
system.cpu00.commit.op_class_0::SimdDiv             0      0.00%     68.42% # Class of committed instruction
system.cpu00.commit.op_class_0::SimdSqrt            0      0.00%     68.42% # Class of committed instruction
system.cpu00.commit.op_class_0::SimdFloatAdd         9375      2.90%     71.32% # Class of committed instruction
system.cpu00.commit.op_class_0::SimdFloatAlu            0      0.00%     71.32% # Class of committed instruction
system.cpu00.commit.op_class_0::SimdFloatCmp            0      0.00%     71.32% # Class of committed instruction
system.cpu00.commit.op_class_0::SimdFloatCvt         6282      1.94%     73.26% # Class of committed instruction
system.cpu00.commit.op_class_0::SimdFloatDiv           32      0.01%     73.27% # Class of committed instruction
system.cpu00.commit.op_class_0::SimdFloatMisc            0      0.00%     73.27% # Class of committed instruction
system.cpu00.commit.op_class_0::SimdFloatMult            0      0.00%     73.27% # Class of committed instruction
system.cpu00.commit.op_class_0::SimdFloatMultAcc            0      0.00%     73.27% # Class of committed instruction
system.cpu00.commit.op_class_0::SimdFloatSqrt            0      0.00%     73.27% # Class of committed instruction
system.cpu00.commit.op_class_0::SimdReduceAdd            0      0.00%     73.27% # Class of committed instruction
system.cpu00.commit.op_class_0::SimdReduceAlu            0      0.00%     73.27% # Class of committed instruction
system.cpu00.commit.op_class_0::SimdReduceCmp            0      0.00%     73.27% # Class of committed instruction
system.cpu00.commit.op_class_0::SimdFloatReduceAdd            0      0.00%     73.27% # Class of committed instruction
system.cpu00.commit.op_class_0::SimdFloatReduceCmp            0      0.00%     73.27% # Class of committed instruction
system.cpu00.commit.op_class_0::SimdAes             0      0.00%     73.27% # Class of committed instruction
system.cpu00.commit.op_class_0::SimdAesMix            0      0.00%     73.27% # Class of committed instruction
system.cpu00.commit.op_class_0::SimdSha1Hash            0      0.00%     73.27% # Class of committed instruction
system.cpu00.commit.op_class_0::SimdSha1Hash2            0      0.00%     73.27% # Class of committed instruction
system.cpu00.commit.op_class_0::SimdSha256Hash            0      0.00%     73.27% # Class of committed instruction
system.cpu00.commit.op_class_0::SimdSha256Hash2            0      0.00%     73.27% # Class of committed instruction
system.cpu00.commit.op_class_0::SimdShaSigma2            0      0.00%     73.27% # Class of committed instruction
system.cpu00.commit.op_class_0::SimdShaSigma3            0      0.00%     73.27% # Class of committed instruction
system.cpu00.commit.op_class_0::SimdPredAlu            0      0.00%     73.27% # Class of committed instruction
system.cpu00.commit.op_class_0::MemRead         44765     13.84%     87.12% # Class of committed instruction
system.cpu00.commit.op_class_0::MemWrite        18148      5.61%     92.73% # Class of committed instruction
system.cpu00.commit.op_class_0::FloatMemRead        16011      4.95%     97.68% # Class of committed instruction
system.cpu00.commit.op_class_0::FloatMemWrite         7499      2.32%    100.00% # Class of committed instruction
system.cpu00.commit.op_class_0::IprAccess            0      0.00%    100.00% # Class of committed instruction
system.cpu00.commit.op_class_0::InstPrefetch            0      0.00%    100.00% # Class of committed instruction
system.cpu00.commit.op_class_0::total          323349                       # Class of committed instruction
system.cpu00.commit.refs                        86423                       # Number of memory references committed
system.cpu00.commit.swp_count                       0                       # Number of s/w prefetches committed
system.cpu00.commit.vec_insts                       0                       # Number of committed Vector instructions.
system.cpu00.committedInsts                    197592                       # Number of Instructions Simulated
system.cpu00.committedOps                      323349                       # Number of Ops (including micro ops) Simulated
system.cpu00.cpi                            24.818900                       # CPI: Cycles Per Instruction
system.cpu00.cpi_total                      24.818900                       # CPI: Total CPI of All Threads
system.cpu00.decode.BlockedCycles             2950840                       # Number of cycles decode is blocked
system.cpu00.decode.DecodedInsts               867746                       # Number of instructions handled by decode
system.cpu00.decode.IdleCycles                  65714                       # Number of cycles decode is idle
system.cpu00.decode.RunCycles                  101723                       # Number of cycles decode is running
system.cpu00.decode.SquashCycles                 5671                       # Number of cycles decode is squashing
system.cpu00.decode.UnblockCycles               20736                       # Number of cycles decode is unblocking
system.cpu00.dtb.rdAccesses                    181914                       # TLB accesses on read requests
system.cpu00.dtb.rdMisses                         244                       # TLB misses on read requests
system.cpu00.dtb.wrAccesses                     44582                       # TLB accesses on write requests
system.cpu00.dtb.wrMisses                         106                       # TLB misses on write requests
system.cpu00.fetch.Branches                     57162                       # Number of branches that fetch encountered
system.cpu00.fetch.CacheLines                   72086                       # Number of cache lines fetched
system.cpu00.fetch.Cycles                     2996286                       # Number of cycles fetch has run and was not squashing or blocked
system.cpu00.fetch.IcacheSquashes                 781                       # Number of outstanding Icache misses that were squashed
system.cpu00.fetch.IcacheWaitRetryStallCycles        44779                       # Number of stall cycles due to full MSHR
system.cpu00.fetch.Insts                       666225                       # Number of instructions fetch has processed
system.cpu00.fetch.MiscStallCycles               2473                       # Number of cycles fetch has spent waiting on interrupts, or bad addresses, or out of MSHRs
system.cpu00.fetch.PendingQuiesceStallCycles           12                       # Number of stall cycles due to pending quiesce instructions
system.cpu00.fetch.PendingTrapStallCycles          724                       # Number of stall cycles due to pending traps
system.cpu00.fetch.SquashCycles                 11342                       # Number of cycles fetch has spent squashing
system.cpu00.fetch.branchRate                0.011656                       # Number of branch fetches per cycle
system.cpu00.fetch.icacheStallCycles            94739                       # Number of cycles fetch is stalled on an Icache miss
system.cpu00.fetch.predictedBranches            24601                       # Number of branches that fetch has predicted taken
system.cpu00.fetch.rate                      0.135853                       # Number of inst fetches per cycle
system.cpu00.fetch.rateDist::samples          3144684                       # Number of instructions fetched each cycle (Total)
system.cpu00.fetch.rateDist::mean            0.325438                       # Number of instructions fetched each cycle (Total)
system.cpu00.fetch.rateDist::stdev           1.482179                       # Number of instructions fetched each cycle (Total)
system.cpu00.fetch.rateDist::underflows             0      0.00%      0.00% # Number of instructions fetched each cycle (Total)
system.cpu00.fetch.rateDist::0                2980289     94.77%     94.77% # Number of instructions fetched each cycle (Total)
system.cpu00.fetch.rateDist::1                   2721      0.09%     94.86% # Number of instructions fetched each cycle (Total)
system.cpu00.fetch.rateDist::2                  16505      0.52%     95.38% # Number of instructions fetched each cycle (Total)
system.cpu00.fetch.rateDist::3                  16561      0.53%     95.91% # Number of instructions fetched each cycle (Total)
system.cpu00.fetch.rateDist::4                   5673      0.18%     96.09% # Number of instructions fetched each cycle (Total)
system.cpu00.fetch.rateDist::5                  13105      0.42%     96.51% # Number of instructions fetched each cycle (Total)
system.cpu00.fetch.rateDist::6                   4611      0.15%     96.65% # Number of instructions fetched each cycle (Total)
system.cpu00.fetch.rateDist::7                  19649      0.62%     97.28% # Number of instructions fetched each cycle (Total)
system.cpu00.fetch.rateDist::8                  85570      2.72%    100.00% # Number of instructions fetched each cycle (Total)
system.cpu00.fetch.rateDist::overflows              0      0.00%    100.00% # Number of instructions fetched each cycle (Total)
system.cpu00.fetch.rateDist::min_value              0                       # Number of instructions fetched each cycle (Total)
system.cpu00.fetch.rateDist::max_value              8                       # Number of instructions fetched each cycle (Total)
system.cpu00.fetch.rateDist::total            3144684                       # Number of instructions fetched each cycle (Total)
system.cpu00.fp_regfile_reads                  146506                       # number of floating regfile reads
system.cpu00.fp_regfile_writes                 122696                       # number of floating regfile writes
system.cpu00.idleCycles                       1759332                       # Total number of cycles that the CPU has spent unscheduled due to idling
system.cpu00.iew.branchMispredicts               3197                       # Number of branch mispredicts detected at execute
system.cpu00.iew.exec_branches                  40760                       # Number of branches executed
system.cpu00.iew.exec_nop                           0                       # number of nop insts executed
system.cpu00.iew.exec_rate                   0.143502                       # Inst execution rate
system.cpu00.iew.exec_refs                     214719                       # number of memory reference insts executed
system.cpu00.iew.exec_stores                    44582                       # Number of stores executed
system.cpu00.iew.exec_swp                           0                       # number of swp insts executed
system.cpu00.iew.iewBlockCycles                435154                       # Number of cycles IEW is blocking
system.cpu00.iew.iewDispLoadInsts              173277                       # Number of dispatched load instructions
system.cpu00.iew.iewDispNonSpecInsts              556                       # Number of dispatched non-speculative instructions
system.cpu00.iew.iewDispSquashedInsts             170                       # Number of squashed instructions skipped by dispatch
system.cpu00.iew.iewDispStoreInsts              59600                       # Number of dispatched store instructions
system.cpu00.iew.iewDispatchedInsts            802239                       # Number of instructions dispatched to IQ
system.cpu00.iew.iewExecLoadInsts              170137                       # Number of load instructions executed
system.cpu00.iew.iewExecSquashedInsts            6121                       # Number of squashed instructions skipped in execute
system.cpu00.iew.iewExecutedInsts              703734                       # Number of executed instructions
system.cpu00.iew.iewIQFullEvents                  900                       # Number of times the IQ has become full, causing a stall
system.cpu00.iew.iewIdleCycles                      0                       # Number of cycles IEW is idle
system.cpu00.iew.iewLSQFullEvents             1472459                       # Number of times the LSQ has become full, causing a stall
system.cpu00.iew.iewSquashCycles                 5671                       # Number of cycles IEW is squashing
system.cpu00.iew.iewUnblockCycles             1474232                       # Number of cycles IEW is unblocking
system.cpu00.iew.lsq.thread0.blockedLoads            0                       # Number of blocked loads due to partial load-store forwarding
system.cpu00.iew.lsq.thread0.cacheBlocked         2960                       # Number of times an access to memory failed due to the cache being blocked
system.cpu00.iew.lsq.thread0.forwLoads          22978                       # Number of loads that had data forwarded from stores
system.cpu00.iew.lsq.thread0.ignoredResponses           18                       # Number of memory responses ignored because the instruction is squashed
system.cpu00.iew.lsq.thread0.invAddrLoads            0                       # Number of loads ignored due to an invalid address
system.cpu00.iew.lsq.thread0.invAddrSwpfs            0                       # Number of software prefetches ignored due to an invalid address
system.cpu00.iew.lsq.thread0.memOrderViolation           77                       # Number of memory ordering violations
system.cpu00.iew.lsq.thread0.rescheduledLoads        14247                       # Number of loads that were rescheduled
system.cpu00.iew.lsq.thread0.squashedLoads       112501                       # Number of loads squashed
system.cpu00.iew.lsq.thread0.squashedStores        33953                       # Number of stores squashed
system.cpu00.iew.memOrderViolationEvents           77                       # Number of memory order violations
system.cpu00.iew.predictedNotTakenIncorrect         3057                       # Number of branches that were predicted not taken incorrectly
system.cpu00.iew.predictedTakenIncorrect          140                       # Number of branches that were predicted taken incorrectly
system.cpu00.iew.wb_consumers                  677775                       # num instructions consuming a value
system.cpu00.iew.wb_count                      662322                       # cumulative count of insts written-back
system.cpu00.iew.wb_fanout                   0.706934                       # average fanout of values written-back
system.cpu00.iew.wb_producers                  479142                       # num instructions producing a value
system.cpu00.iew.wb_rate                     0.135057                       # insts written-back per cycle
system.cpu00.iew.wb_sent                       678018                       # cumulative count of insts sent to commit
system.cpu00.int_regfile_reads                1030745                       # number of integer regfile reads
system.cpu00.int_regfile_writes                465919                       # number of integer regfile writes
system.cpu00.ipc                             0.040292                       # IPC: Instructions Per Cycle
system.cpu00.ipc_total                       0.040292                       # IPC: Total IPC of All Threads
system.cpu00.iq.FU_type_0::No_OpClass            1184      0.17%      0.17% # Type of FU issued
system.cpu00.iq.FU_type_0::IntAlu              390069     54.95%     55.12% # Type of FU issued
system.cpu00.iq.FU_type_0::IntMult              10355      1.46%     56.58% # Type of FU issued
system.cpu00.iq.FU_type_0::IntDiv                  24      0.00%     56.58% # Type of FU issued
system.cpu00.iq.FU_type_0::FloatAdd             32387      4.56%     61.14% # Type of FU issued
system.cpu00.iq.FU_type_0::FloatCmp                 0      0.00%     61.14% # Type of FU issued
system.cpu00.iq.FU_type_0::FloatCvt                 0      0.00%     61.14% # Type of FU issued
system.cpu00.iq.FU_type_0::FloatMult                0      0.00%     61.14% # Type of FU issued
system.cpu00.iq.FU_type_0::FloatMultAcc             0      0.00%     61.14% # Type of FU issued
system.cpu00.iq.FU_type_0::FloatDiv                 0      0.00%     61.14% # Type of FU issued
system.cpu00.iq.FU_type_0::FloatMisc                0      0.00%     61.14% # Type of FU issued
system.cpu00.iq.FU_type_0::FloatSqrt                0      0.00%     61.14% # Type of FU issued
system.cpu00.iq.FU_type_0::SimdAdd                 16      0.00%     61.14% # Type of FU issued
system.cpu00.iq.FU_type_0::SimdAddAcc               0      0.00%     61.14% # Type of FU issued
system.cpu00.iq.FU_type_0::SimdAlu              33134      4.67%     65.81% # Type of FU issued
system.cpu00.iq.FU_type_0::SimdCmp                  0      0.00%     65.81% # Type of FU issued
system.cpu00.iq.FU_type_0::SimdCvt                342      0.05%     65.86% # Type of FU issued
system.cpu00.iq.FU_type_0::SimdMisc               397      0.06%     65.92% # Type of FU issued
system.cpu00.iq.FU_type_0::SimdMult                 0      0.00%     65.92% # Type of FU issued
system.cpu00.iq.FU_type_0::SimdMultAcc              0      0.00%     65.92% # Type of FU issued
system.cpu00.iq.FU_type_0::SimdShift                0      0.00%     65.92% # Type of FU issued
system.cpu00.iq.FU_type_0::SimdShiftAcc             0      0.00%     65.92% # Type of FU issued
system.cpu00.iq.FU_type_0::SimdDiv                  0      0.00%     65.92% # Type of FU issued
system.cpu00.iq.FU_type_0::SimdSqrt                 0      0.00%     65.92% # Type of FU issued
system.cpu00.iq.FU_type_0::SimdFloatAdd         15164      2.14%     68.05% # Type of FU issued
system.cpu00.iq.FU_type_0::SimdFloatAlu             0      0.00%     68.05% # Type of FU issued
system.cpu00.iq.FU_type_0::SimdFloatCmp             0      0.00%     68.05% # Type of FU issued
system.cpu00.iq.FU_type_0::SimdFloatCvt         10289      1.45%     69.50% # Type of FU issued
system.cpu00.iq.FU_type_0::SimdFloatDiv            32      0.00%     69.51% # Type of FU issued
system.cpu00.iq.FU_type_0::SimdFloatMisc            0      0.00%     69.51% # Type of FU issued
system.cpu00.iq.FU_type_0::SimdFloatMult            0      0.00%     69.51% # Type of FU issued
system.cpu00.iq.FU_type_0::SimdFloatMultAcc            0      0.00%     69.51% # Type of FU issued
system.cpu00.iq.FU_type_0::SimdFloatSqrt            0      0.00%     69.51% # Type of FU issued
system.cpu00.iq.FU_type_0::SimdReduceAdd            0      0.00%     69.51% # Type of FU issued
system.cpu00.iq.FU_type_0::SimdReduceAlu            0      0.00%     69.51% # Type of FU issued
system.cpu00.iq.FU_type_0::SimdReduceCmp            0      0.00%     69.51% # Type of FU issued
system.cpu00.iq.FU_type_0::SimdFloatReduceAdd            0      0.00%     69.51% # Type of FU issued
system.cpu00.iq.FU_type_0::SimdFloatReduceCmp            0      0.00%     69.51% # Type of FU issued
system.cpu00.iq.FU_type_0::SimdAes                  0      0.00%     69.51% # Type of FU issued
system.cpu00.iq.FU_type_0::SimdAesMix               0      0.00%     69.51% # Type of FU issued
system.cpu00.iq.FU_type_0::SimdSha1Hash             0      0.00%     69.51% # Type of FU issued
system.cpu00.iq.FU_type_0::SimdSha1Hash2            0      0.00%     69.51% # Type of FU issued
system.cpu00.iq.FU_type_0::SimdSha256Hash            0      0.00%     69.51% # Type of FU issued
system.cpu00.iq.FU_type_0::SimdSha256Hash2            0      0.00%     69.51% # Type of FU issued
system.cpu00.iq.FU_type_0::SimdShaSigma2            0      0.00%     69.51% # Type of FU issued
system.cpu00.iq.FU_type_0::SimdShaSigma3            0      0.00%     69.51% # Type of FU issued
system.cpu00.iq.FU_type_0::SimdPredAlu              0      0.00%     69.51% # Type of FU issued
system.cpu00.iq.FU_type_0::MemRead             121700     17.14%     86.65% # Type of FU issued
system.cpu00.iq.FU_type_0::MemWrite             34503      4.86%     91.51% # Type of FU issued
system.cpu00.iq.FU_type_0::FloatMemRead         49396      6.96%     98.47% # Type of FU issued
system.cpu00.iq.FU_type_0::FloatMemWrite        10863      1.53%    100.00% # Type of FU issued
system.cpu00.iq.FU_type_0::IprAccess                0      0.00%    100.00% # Type of FU issued
system.cpu00.iq.FU_type_0::InstPrefetch             0      0.00%    100.00% # Type of FU issued
system.cpu00.iq.FU_type_0::total               709855                       # Type of FU issued
system.cpu00.iq.fp_alu_accesses                152363                       # Number of floating point alu accesses
system.cpu00.iq.fp_inst_queue_reads            304453                       # Number of floating instruction queue reads
system.cpu00.iq.fp_inst_queue_wakeup_accesses       133422                       # Number of floating instruction queue wakeup accesses
system.cpu00.iq.fp_inst_queue_writes           341418                       # Number of floating instruction queue writes
system.cpu00.iq.fu_busy_cnt                      5879                       # FU busy when requested
system.cpu00.iq.fu_busy_rate                 0.008282                       # FU busy rate (busy events/executed inst)
system.cpu00.iq.fu_full::No_OpClass                 0      0.00%      0.00% # attempts to use FU when none available
system.cpu00.iq.fu_full::IntAlu                  3346     56.91%     56.91% # attempts to use FU when none available
system.cpu00.iq.fu_full::IntMult                    0      0.00%     56.91% # attempts to use FU when none available
system.cpu00.iq.fu_full::IntDiv                     0      0.00%     56.91% # attempts to use FU when none available
system.cpu00.iq.fu_full::FloatAdd                   0      0.00%     56.91% # attempts to use FU when none available
system.cpu00.iq.fu_full::FloatCmp                   0      0.00%     56.91% # attempts to use FU when none available
system.cpu00.iq.fu_full::FloatCvt                   0      0.00%     56.91% # attempts to use FU when none available
system.cpu00.iq.fu_full::FloatMult                  0      0.00%     56.91% # attempts to use FU when none available
system.cpu00.iq.fu_full::FloatMultAcc               0      0.00%     56.91% # attempts to use FU when none available
system.cpu00.iq.fu_full::FloatDiv                   0      0.00%     56.91% # attempts to use FU when none available
system.cpu00.iq.fu_full::FloatMisc                  0      0.00%     56.91% # attempts to use FU when none available
system.cpu00.iq.fu_full::FloatSqrt                  0      0.00%     56.91% # attempts to use FU when none available
system.cpu00.iq.fu_full::SimdAdd                    0      0.00%     56.91% # attempts to use FU when none available
system.cpu00.iq.fu_full::SimdAddAcc                 0      0.00%     56.91% # attempts to use FU when none available
system.cpu00.iq.fu_full::SimdAlu                  102      1.73%     58.65% # attempts to use FU when none available
system.cpu00.iq.fu_full::SimdCmp                    0      0.00%     58.65% # attempts to use FU when none available
system.cpu00.iq.fu_full::SimdCvt                    4      0.07%     58.72% # attempts to use FU when none available
system.cpu00.iq.fu_full::SimdMisc                   3      0.05%     58.77% # attempts to use FU when none available
system.cpu00.iq.fu_full::SimdMult                   0      0.00%     58.77% # attempts to use FU when none available
system.cpu00.iq.fu_full::SimdMultAcc                0      0.00%     58.77% # attempts to use FU when none available
system.cpu00.iq.fu_full::SimdShift                  0      0.00%     58.77% # attempts to use FU when none available
system.cpu00.iq.fu_full::SimdShiftAcc               0      0.00%     58.77% # attempts to use FU when none available
system.cpu00.iq.fu_full::SimdDiv                    0      0.00%     58.77% # attempts to use FU when none available
system.cpu00.iq.fu_full::SimdSqrt                   0      0.00%     58.77% # attempts to use FU when none available
system.cpu00.iq.fu_full::SimdFloatAdd               0      0.00%     58.77% # attempts to use FU when none available
system.cpu00.iq.fu_full::SimdFloatAlu               0      0.00%     58.77% # attempts to use FU when none available
system.cpu00.iq.fu_full::SimdFloatCmp               0      0.00%     58.77% # attempts to use FU when none available
system.cpu00.iq.fu_full::SimdFloatCvt               0      0.00%     58.77% # attempts to use FU when none available
system.cpu00.iq.fu_full::SimdFloatDiv               0      0.00%     58.77% # attempts to use FU when none available
system.cpu00.iq.fu_full::SimdFloatMisc              0      0.00%     58.77% # attempts to use FU when none available
system.cpu00.iq.fu_full::SimdFloatMult              0      0.00%     58.77% # attempts to use FU when none available
system.cpu00.iq.fu_full::SimdFloatMultAcc            0      0.00%     58.77% # attempts to use FU when none available
system.cpu00.iq.fu_full::SimdFloatSqrt              0      0.00%     58.77% # attempts to use FU when none available
system.cpu00.iq.fu_full::SimdReduceAdd              0      0.00%     58.77% # attempts to use FU when none available
system.cpu00.iq.fu_full::SimdReduceAlu              0      0.00%     58.77% # attempts to use FU when none available
system.cpu00.iq.fu_full::SimdReduceCmp              0      0.00%     58.77% # attempts to use FU when none available
system.cpu00.iq.fu_full::SimdFloatReduceAdd            0      0.00%     58.77% # attempts to use FU when none available
system.cpu00.iq.fu_full::SimdFloatReduceCmp            0      0.00%     58.77% # attempts to use FU when none available
system.cpu00.iq.fu_full::SimdAes                    0      0.00%     58.77% # attempts to use FU when none available
system.cpu00.iq.fu_full::SimdAesMix                 0      0.00%     58.77% # attempts to use FU when none available
system.cpu00.iq.fu_full::SimdSha1Hash               0      0.00%     58.77% # attempts to use FU when none available
system.cpu00.iq.fu_full::SimdSha1Hash2              0      0.00%     58.77% # attempts to use FU when none available
system.cpu00.iq.fu_full::SimdSha256Hash             0      0.00%     58.77% # attempts to use FU when none available
system.cpu00.iq.fu_full::SimdSha256Hash2            0      0.00%     58.77% # attempts to use FU when none available
system.cpu00.iq.fu_full::SimdShaSigma2              0      0.00%     58.77% # attempts to use FU when none available
system.cpu00.iq.fu_full::SimdShaSigma3              0      0.00%     58.77% # attempts to use FU when none available
system.cpu00.iq.fu_full::SimdPredAlu                0      0.00%     58.77% # attempts to use FU when none available
system.cpu00.iq.fu_full::MemRead                 1791     30.46%     89.23% # attempts to use FU when none available
system.cpu00.iq.fu_full::MemWrite                 421      7.16%     96.39% # attempts to use FU when none available
system.cpu00.iq.fu_full::FloatMemRead             181      3.08%     99.47% # attempts to use FU when none available
system.cpu00.iq.fu_full::FloatMemWrite             31      0.53%    100.00% # attempts to use FU when none available
system.cpu00.iq.fu_full::IprAccess                  0      0.00%    100.00% # attempts to use FU when none available
system.cpu00.iq.fu_full::InstPrefetch               0      0.00%    100.00% # attempts to use FU when none available
system.cpu00.iq.int_alu_accesses               562187                       # Number of integer alu accesses
system.cpu00.iq.int_inst_queue_reads          4266857                       # Number of integer instruction queue reads
system.cpu00.iq.int_inst_queue_wakeup_accesses       528900                       # Number of integer instruction queue wakeup accesses
system.cpu00.iq.int_inst_queue_writes          939785                       # Number of integer instruction queue writes
system.cpu00.iq.iqInstsAdded                   800835                       # Number of instructions added to the IQ (excludes non-spec)
system.cpu00.iq.iqInstsIssued                  709855                       # Number of instructions issued
system.cpu00.iq.iqNonSpecInstsAdded              1404                       # Number of non-speculative instructions added to the IQ
system.cpu00.iq.iqSquashedInstsExamined        478889                       # Number of squashed instructions iterated over during squash; mainly for profiling
system.cpu00.iq.iqSquashedInstsIssued            1037                       # Number of squashed instructions issued
system.cpu00.iq.iqSquashedNonSpecRemoved          835                       # Number of squashed non-spec instructions that were removed
system.cpu00.iq.iqSquashedOperandsExamined       386957                       # Number of squashed operands that are examined and possibly removed from graph
system.cpu00.iq.issued_per_cycle::samples      3144684                       # Number of insts issued each cycle
system.cpu00.iq.issued_per_cycle::mean       0.225732                       # Number of insts issued each cycle
system.cpu00.iq.issued_per_cycle::stdev      0.957660                       # Number of insts issued each cycle
system.cpu00.iq.issued_per_cycle::underflows            0      0.00%      0.00% # Number of insts issued each cycle
system.cpu00.iq.issued_per_cycle::0           2922984     92.95%     92.95% # Number of insts issued each cycle
system.cpu00.iq.issued_per_cycle::1             48118      1.53%     94.48% # Number of insts issued each cycle
system.cpu00.iq.issued_per_cycle::2             48753      1.55%     96.03% # Number of insts issued each cycle
system.cpu00.iq.issued_per_cycle::3             33745      1.07%     97.10% # Number of insts issued each cycle
system.cpu00.iq.issued_per_cycle::4             40885      1.30%     98.40% # Number of insts issued each cycle
system.cpu00.iq.issued_per_cycle::5             22777      0.72%     99.13% # Number of insts issued each cycle
system.cpu00.iq.issued_per_cycle::6             12957      0.41%     99.54% # Number of insts issued each cycle
system.cpu00.iq.issued_per_cycle::7              7891      0.25%     99.79% # Number of insts issued each cycle
system.cpu00.iq.issued_per_cycle::8              6574      0.21%    100.00% # Number of insts issued each cycle
system.cpu00.iq.issued_per_cycle::overflows            0      0.00%    100.00% # Number of insts issued each cycle
system.cpu00.iq.issued_per_cycle::min_value            0                       # Number of insts issued each cycle
system.cpu00.iq.issued_per_cycle::max_value            8                       # Number of insts issued each cycle
system.cpu00.iq.issued_per_cycle::total       3144684                       # Number of insts issued each cycle
system.cpu00.iq.rate                         0.144750                       # Inst issue rate
system.cpu00.iq.vec_alu_accesses                    0                       # Number of vector alu accesses
system.cpu00.iq.vec_inst_queue_reads                0                       # Number of vector instruction queue reads
system.cpu00.iq.vec_inst_queue_wakeup_accesses            0                       # Number of vector instruction queue wakeup accesses
system.cpu00.iq.vec_inst_queue_writes               0                       # Number of vector instruction queue writes
system.cpu00.itb.rdAccesses                         0                       # TLB accesses on read requests
system.cpu00.itb.rdMisses                           0                       # TLB misses on read requests
system.cpu00.itb.wrAccesses                     72210                       # TLB accesses on write requests
system.cpu00.itb.wrMisses                         244                       # TLB misses on write requests
system.cpu00.memDep0.conflictingLoads           38799                       # Number of conflicting loads.
system.cpu00.memDep0.conflictingStores          25153                       # Number of conflicting stores.
system.cpu00.memDep0.insertedLoads             173277                       # Number of loads inserted to the mem dependence unit.
system.cpu00.memDep0.insertedStores             59600                       # Number of stores inserted to the mem dependence unit.
system.cpu00.misc_regfile_reads                299473                       # number of misc regfile reads
system.cpu00.numCycles                        4904016                       # number of cpu cycles simulated
system.cpu00.numWorkItemsCompleted                  0                       # number of work items this cpu completed
system.cpu00.numWorkItemsStarted                    0                       # number of work items this cpu started
system.cpu00.rename.BlockCycles               1920078                       # Number of cycles rename is blocking
system.cpu00.rename.CommittedMaps              373614                       # Number of HB maps that are committed
system.cpu00.rename.IQFullEvents                86750                       # Number of times rename has blocked due to IQ full
system.cpu00.rename.IdleCycles                  76998                       # Number of cycles rename is idle
system.cpu00.rename.LQFullEvents               971790                       # Number of times rename has blocked due to LQ full
system.cpu00.rename.ROBFullEvents                 121                       # Number of times rename has blocked due to ROB full
system.cpu00.rename.RenameLookups             1946494                       # Number of register rename lookups that rename has made
system.cpu00.rename.RenamedInsts               831623                       # Number of instructions processed by rename
system.cpu00.rename.RenamedOperands            974504                       # Number of destination operands rename has renamed
system.cpu00.rename.RunCycles                  108186                       # Number of cycles rename is running
system.cpu00.rename.SQFullEvents                16284                       # Number of times rename has blocked due to SQ full
system.cpu00.rename.SquashCycles                 5671                       # Number of cycles rename is squashing
system.cpu00.rename.UnblockCycles             1013088                       # Number of cycles rename is unblocking
system.cpu00.rename.UndoneMaps                 600890                       # Number of HB maps that are undone due to squashing
system.cpu00.rename.fp_rename_lookups          243081                       # Number of floating rename lookups
system.cpu00.rename.int_rename_lookups        1195789                       # Number of integer rename lookups
system.cpu00.rename.serializeStallCycles        20663                       # count of cycles rename stalled for serializing inst
system.cpu00.rename.serializingInsts              131                       # count of serializing insts renamed
system.cpu00.rename.skidInsts                  142496                       # count of insts added to the skid buffer
system.cpu00.rename.tempSerializingInsts          129                       # count of temporary serializing insts renamed
system.cpu00.rob.rob_reads                    3811482                       # The number of ROB reads
system.cpu00.rob.rob_writes                   1651256                       # The number of ROB writes
system.cpu00.timesIdled                          3017                       # Number of times that the entire CPU went into an idle state and unscheduled itself
system.cpu00.workload.numSyscalls                  86                       # Number of system calls
system.cpu01.branchPred.BTBCorrect                  0                       # Number of correct BTB predictions (this stat may not work properly.
system.cpu01.branchPred.BTBHitPct            0.000000                       # BTB Hit Percentage
system.cpu01.branchPred.BTBHits                     0                       # Number of BTB hits
system.cpu01.branchPred.BTBLookups              38482                       # Number of BTB lookups
system.cpu01.branchPred.RASInCorrect                0                       # Number of incorrect RAS predictions.
system.cpu01.branchPred.condIncorrect             108                       # Number of conditional branches incorrect
system.cpu01.branchPred.condPredicted           70467                       # Number of conditional branches predicted
system.cpu01.branchPred.indirectHits            34961                       # Number of indirect target hits.
system.cpu01.branchPred.indirectLookups         38482                       # Number of indirect predictor lookups.
system.cpu01.branchPred.indirectMisses           3521                       # Number of indirect misses.
system.cpu01.branchPred.lookups                 70882                       # Number of BP lookups
system.cpu01.branchPred.usedRAS                   117                       # Number of times the RAS was used to get a target.
system.cpu01.branchPredindirectMispredicted           51                       # Number of mispredicted indirect branches.
system.cpu01.cc_regfile_reads                  268572                       # number of cc regfile reads
system.cpu01.cc_regfile_writes                 302291                       # number of cc regfile writes
system.cpu01.commit.amos                            0                       # Number of atomic instructions committed
system.cpu01.commit.branchMispredicts             210                       # The number of times a branch was mispredicted
system.cpu01.commit.branches                    50177                       # Number of branches committed
system.cpu01.commit.bw_lim_events               12581                       # number cycles where commit BW limit reached
system.cpu01.commit.commitNonSpecStalls            10                       # The number of times commit has been forced to stall to communicate backwards
system.cpu01.commit.commitSquashedInsts        434669                       # The number of squashed insts skipped by commit
system.cpu01.commit.committedInsts             278852                       # Number of instructions committed
system.cpu01.commit.committedOps               441924                       # Number of ops (including micro ops) committed
system.cpu01.commit.committed_per_cycle::samples      4711442                       # Number of insts commited each cycle
system.cpu01.commit.committed_per_cycle::mean     0.093798                       # Number of insts commited each cycle
system.cpu01.commit.committed_per_cycle::stdev     0.737687                       # Number of insts commited each cycle
system.cpu01.commit.committed_per_cycle::underflows            0      0.00%      0.00% # Number of insts commited each cycle
system.cpu01.commit.committed_per_cycle::0      4611796     97.89%     97.89% # Number of insts commited each cycle
system.cpu01.commit.committed_per_cycle::1        27568      0.59%     98.47% # Number of insts commited each cycle
system.cpu01.commit.committed_per_cycle::2         3142      0.07%     98.54% # Number of insts commited each cycle
system.cpu01.commit.committed_per_cycle::3         3142      0.07%     98.60% # Number of insts commited each cycle
system.cpu01.commit.committed_per_cycle::4         6084      0.13%     98.73% # Number of insts commited each cycle
system.cpu01.commit.committed_per_cycle::5        28101      0.60%     99.33% # Number of insts commited each cycle
system.cpu01.commit.committed_per_cycle::6           39      0.00%     99.33% # Number of insts commited each cycle
system.cpu01.commit.committed_per_cycle::7        18989      0.40%     99.73% # Number of insts commited each cycle
system.cpu01.commit.committed_per_cycle::8        12581      0.27%    100.00% # Number of insts commited each cycle
system.cpu01.commit.committed_per_cycle::overflows            0      0.00%    100.00% # Number of insts commited each cycle
system.cpu01.commit.committed_per_cycle::min_value            0                       # Number of insts commited each cycle
system.cpu01.commit.committed_per_cycle::max_value            8                       # Number of insts commited each cycle
system.cpu01.commit.committed_per_cycle::total      4711442                       # Number of insts commited each cycle
system.cpu01.commit.fp_insts                    59407                       # Number of committed floating point instructions.
system.cpu01.commit.function_calls                 10                       # Number of function calls committed.
system.cpu01.commit.int_insts                  382474                       # Number of committed integer instructions.
system.cpu01.commit.loads                       65780                       # Number of loads committed
system.cpu01.commit.membars                         6                       # Number of memory barriers committed
system.cpu01.commit.op_class_0::No_OpClass            4      0.00%      0.00% # Class of committed instruction
system.cpu01.commit.op_class_0::IntAlu         322940     73.08%     73.08% # Class of committed instruction
system.cpu01.commit.op_class_0::IntMult          3127      0.71%     73.78% # Class of committed instruction
system.cpu01.commit.op_class_0::IntDiv              7      0.00%     73.79% # Class of committed instruction
system.cpu01.commit.op_class_0::FloatAdd         9375      2.12%     75.91% # Class of committed instruction
system.cpu01.commit.op_class_0::FloatCmp            0      0.00%     75.91% # Class of committed instruction
system.cpu01.commit.op_class_0::FloatCvt            0      0.00%     75.91% # Class of committed instruction
system.cpu01.commit.op_class_0::FloatMult            0      0.00%     75.91% # Class of committed instruction
system.cpu01.commit.op_class_0::FloatMultAcc            0      0.00%     75.91% # Class of committed instruction
system.cpu01.commit.op_class_0::FloatDiv            0      0.00%     75.91% # Class of committed instruction
system.cpu01.commit.op_class_0::FloatMisc            0      0.00%     75.91% # Class of committed instruction
system.cpu01.commit.op_class_0::FloatSqrt            0      0.00%     75.91% # Class of committed instruction
system.cpu01.commit.op_class_0::SimdAdd             0      0.00%     75.91% # Class of committed instruction
system.cpu01.commit.op_class_0::SimdAddAcc            0      0.00%     75.91% # Class of committed instruction
system.cpu01.commit.op_class_0::SimdAlu         12500      2.83%     78.74% # Class of committed instruction
system.cpu01.commit.op_class_0::SimdCmp             0      0.00%     78.74% # Class of committed instruction
system.cpu01.commit.op_class_0::SimdCvt             0      0.00%     78.74% # Class of committed instruction
system.cpu01.commit.op_class_0::SimdMisc            0      0.00%     78.74% # Class of committed instruction
system.cpu01.commit.op_class_0::SimdMult            0      0.00%     78.74% # Class of committed instruction
system.cpu01.commit.op_class_0::SimdMultAcc            0      0.00%     78.74% # Class of committed instruction
system.cpu01.commit.op_class_0::SimdShift            0      0.00%     78.74% # Class of committed instruction
system.cpu01.commit.op_class_0::SimdShiftAcc            0      0.00%     78.74% # Class of committed instruction
system.cpu01.commit.op_class_0::SimdDiv             0      0.00%     78.74% # Class of committed instruction
system.cpu01.commit.op_class_0::SimdSqrt            0      0.00%     78.74% # Class of committed instruction
system.cpu01.commit.op_class_0::SimdFloatAdd         9375      2.12%     80.86% # Class of committed instruction
system.cpu01.commit.op_class_0::SimdFloatAlu            0      0.00%     80.86% # Class of committed instruction
system.cpu01.commit.op_class_0::SimdFloatCmp            0      0.00%     80.86% # Class of committed instruction
system.cpu01.commit.op_class_0::SimdFloatCvt         6250      1.41%     82.27% # Class of committed instruction
system.cpu01.commit.op_class_0::SimdFloatDiv            0      0.00%     82.27% # Class of committed instruction
system.cpu01.commit.op_class_0::SimdFloatMisc            0      0.00%     82.27% # Class of committed instruction
system.cpu01.commit.op_class_0::SimdFloatMult            0      0.00%     82.27% # Class of committed instruction
system.cpu01.commit.op_class_0::SimdFloatMultAcc            0      0.00%     82.27% # Class of committed instruction
system.cpu01.commit.op_class_0::SimdFloatSqrt            0      0.00%     82.27% # Class of committed instruction
system.cpu01.commit.op_class_0::SimdReduceAdd            0      0.00%     82.27% # Class of committed instruction
system.cpu01.commit.op_class_0::SimdReduceAlu            0      0.00%     82.27% # Class of committed instruction
system.cpu01.commit.op_class_0::SimdReduceCmp            0      0.00%     82.27% # Class of committed instruction
system.cpu01.commit.op_class_0::SimdFloatReduceAdd            0      0.00%     82.27% # Class of committed instruction
system.cpu01.commit.op_class_0::SimdFloatReduceCmp            0      0.00%     82.27% # Class of committed instruction
system.cpu01.commit.op_class_0::SimdAes             0      0.00%     82.27% # Class of committed instruction
system.cpu01.commit.op_class_0::SimdAesMix            0      0.00%     82.27% # Class of committed instruction
system.cpu01.commit.op_class_0::SimdSha1Hash            0      0.00%     82.27% # Class of committed instruction
system.cpu01.commit.op_class_0::SimdSha1Hash2            0      0.00%     82.27% # Class of committed instruction
system.cpu01.commit.op_class_0::SimdSha256Hash            0      0.00%     82.27% # Class of committed instruction
system.cpu01.commit.op_class_0::SimdSha256Hash2            0      0.00%     82.27% # Class of committed instruction
system.cpu01.commit.op_class_0::SimdShaSigma2            0      0.00%     82.27% # Class of committed instruction
system.cpu01.commit.op_class_0::SimdShaSigma3            0      0.00%     82.27% # Class of committed instruction
system.cpu01.commit.op_class_0::SimdPredAlu            0      0.00%     82.27% # Class of committed instruction
system.cpu01.commit.op_class_0::MemRead         50139     11.35%     93.62% # Class of committed instruction
system.cpu01.commit.op_class_0::MemWrite         6300      1.43%     95.04% # Class of committed instruction
system.cpu01.commit.op_class_0::FloatMemRead        15641      3.54%     98.58% # Class of committed instruction
system.cpu01.commit.op_class_0::FloatMemWrite         6266      1.42%    100.00% # Class of committed instruction
system.cpu01.commit.op_class_0::IprAccess            0      0.00%    100.00% # Class of committed instruction
system.cpu01.commit.op_class_0::InstPrefetch            0      0.00%    100.00% # Class of committed instruction
system.cpu01.commit.op_class_0::total          441924                       # Class of committed instruction
system.cpu01.commit.refs                        78346                       # Number of memory references committed
system.cpu01.commit.swp_count                       0                       # Number of s/w prefetches committed
system.cpu01.commit.vec_insts                       0                       # Number of committed Vector instructions.
system.cpu01.committedInsts                    278852                       # Number of Instructions Simulated
system.cpu01.committedOps                      441924                       # Number of Ops (including micro ops) Simulated
system.cpu01.cpi                            17.106842                       # CPI: Cycles Per Instruction
system.cpu01.cpi_total                      17.106842                       # CPI: Total CPI of All Threads
system.cpu01.decode.BlockedCycles             4582914                       # Number of cycles decode is blocked
system.cpu01.decode.DecodedInsts               896041                       # Number of instructions handled by decode
system.cpu01.decode.IdleCycles                  42910                       # Number of cycles decode is idle
system.cpu01.decode.RunCycles                  125704                       # Number of cycles decode is running
system.cpu01.decode.SquashCycles                 3475                       # Number of cycles decode is squashing
system.cpu01.decode.UnblockCycles               12556                       # Number of cycles decode is unblocking
system.cpu01.dtb.rdAccesses                    185219                       # TLB accesses on read requests
system.cpu01.dtb.rdMisses                          13                       # TLB misses on read requests
system.cpu01.dtb.wrAccesses                     32048                       # TLB accesses on write requests
system.cpu01.dtb.wrMisses                           1                       # TLB misses on write requests
system.cpu01.fetch.Branches                     70882                       # Number of branches that fetch encountered
system.cpu01.fetch.CacheLines                   70810                       # Number of cache lines fetched
system.cpu01.fetch.Cycles                     4688445                       # Number of cycles fetch has run and was not squashing or blocked
system.cpu01.fetch.IcacheSquashes                  18                       # Number of outstanding Icache misses that were squashed
system.cpu01.fetch.IcacheWaitRetryStallCycles           17                       # Number of stall cycles due to full MSHR
system.cpu01.fetch.Insts                       707349                       # Number of instructions fetch has processed
system.cpu01.fetch.MiscStallCycles                105                       # Number of cycles fetch has spent waiting on interrupts, or bad addresses, or out of MSHRs
system.cpu01.fetch.PendingTrapStallCycles          658                       # Number of stall cycles due to pending traps
system.cpu01.fetch.SquashCycles                  6950                       # Number of cycles fetch has spent squashing
system.cpu01.fetch.branchRate                0.014859                       # Number of branch fetches per cycle
system.cpu01.fetch.icacheStallCycles            74859                       # Number of cycles fetch is stalled on an Icache miss
system.cpu01.fetch.predictedBranches            35078                       # Number of branches that fetch has predicted taken
system.cpu01.fetch.rate                      0.148283                       # Number of inst fetches per cycle
system.cpu01.fetch.rateDist::samples          4767559                       # Number of instructions fetched each cycle (Total)
system.cpu01.fetch.rateDist::mean            0.221021                       # Number of instructions fetched each cycle (Total)
system.cpu01.fetch.rateDist::stdev           1.211584                       # Number of instructions fetched each cycle (Total)
system.cpu01.fetch.rateDist::underflows             0      0.00%      0.00% # Number of instructions fetched each cycle (Total)
system.cpu01.fetch.rateDist::0                4584126     96.15%     96.15% # Number of instructions fetched each cycle (Total)
system.cpu01.fetch.rateDist::1                  12304      0.26%     96.41% # Number of instructions fetched each cycle (Total)
system.cpu01.fetch.rateDist::2                  16110      0.34%     96.75% # Number of instructions fetched each cycle (Total)
system.cpu01.fetch.rateDist::3                  19155      0.40%     97.15% # Number of instructions fetched each cycle (Total)
system.cpu01.fetch.rateDist::4                  19270      0.40%     97.55% # Number of instructions fetched each cycle (Total)
system.cpu01.fetch.rateDist::5                  12769      0.27%     97.82% # Number of instructions fetched each cycle (Total)
system.cpu01.fetch.rateDist::6                   3297      0.07%     97.89% # Number of instructions fetched each cycle (Total)
system.cpu01.fetch.rateDist::7                  13187      0.28%     98.17% # Number of instructions fetched each cycle (Total)
system.cpu01.fetch.rateDist::8                  87341      1.83%    100.00% # Number of instructions fetched each cycle (Total)
system.cpu01.fetch.rateDist::overflows              0      0.00%    100.00% # Number of instructions fetched each cycle (Total)
system.cpu01.fetch.rateDist::min_value              0                       # Number of instructions fetched each cycle (Total)
system.cpu01.fetch.rateDist::max_value              8                       # Number of instructions fetched each cycle (Total)
system.cpu01.fetch.rateDist::total            4767559                       # Number of instructions fetched each cycle (Total)
system.cpu01.fp_regfile_reads                  198726                       # number of floating regfile reads
system.cpu01.fp_regfile_writes                 158384                       # number of floating regfile writes
system.cpu01.idleCycles                          2718                       # Total number of cycles that the CPU has spent unscheduled due to idling
system.cpu01.iew.branchMispredicts                246                       # Number of branch mispredicts detected at execute
system.cpu01.iew.exec_branches                  63555                       # Number of branches executed
system.cpu01.iew.exec_nop                           0                       # number of nop insts executed
system.cpu01.iew.exec_rate                   0.177121                       # Inst execution rate
system.cpu01.iew.exec_refs                     217276                       # number of memory reference insts executed
system.cpu01.iew.exec_stores                    32048                       # Number of stores executed
system.cpu01.iew.exec_swp                           0                       # number of swp insts executed
system.cpu01.iew.iewBlockCycles                 53391                       # Number of cycles IEW is blocking
system.cpu01.iew.iewDispLoadInsts              173634                       # Number of dispatched load instructions
system.cpu01.iew.iewDispNonSpecInsts               11                       # Number of dispatched non-speculative instructions
system.cpu01.iew.iewDispSquashedInsts              10                       # Number of squashed instructions skipped by dispatch
system.cpu01.iew.iewDispStoreInsts              42276                       # Number of dispatched store instructions
system.cpu01.iew.iewDispatchedInsts            876158                       # Number of instructions dispatched to IQ
system.cpu01.iew.iewExecLoadInsts              185228                       # Number of load instructions executed
system.cpu01.iew.iewExecSquashedInsts             354                       # Number of squashed instructions skipped in execute
system.cpu01.iew.iewExecutedInsts              844915                       # Number of executed instructions
system.cpu01.iew.iewIQFullEvents                    3                       # Number of times the IQ has become full, causing a stall
system.cpu01.iew.iewIdleCycles                      0                       # Number of cycles IEW is idle
system.cpu01.iew.iewLSQFullEvents              214730                       # Number of times the LSQ has become full, causing a stall
system.cpu01.iew.iewSquashCycles                 3475                       # Number of cycles IEW is squashing
system.cpu01.iew.iewUnblockCycles              214570                       # Number of cycles IEW is unblocking
system.cpu01.iew.lsq.thread0.blockedLoads            0                       # Number of blocked loads due to partial load-store forwarding
system.cpu01.iew.lsq.thread0.cacheBlocked            1                       # Number of times an access to memory failed due to the cache being blocked
system.cpu01.iew.lsq.thread0.forwLoads          25231                       # Number of loads that had data forwarded from stores
system.cpu01.iew.lsq.thread0.ignoredResponses            0                       # Number of memory responses ignored because the instruction is squashed
system.cpu01.iew.lsq.thread0.invAddrLoads            0                       # Number of loads ignored due to an invalid address
system.cpu01.iew.lsq.thread0.invAddrSwpfs            0                       # Number of software prefetches ignored due to an invalid address
system.cpu01.iew.lsq.thread0.memOrderViolation            8                       # Number of memory ordering violations
system.cpu01.iew.lsq.thread0.rescheduledLoads        25228                       # Number of loads that were rescheduled
system.cpu01.iew.lsq.thread0.squashedLoads       107853                       # Number of loads squashed
system.cpu01.iew.lsq.thread0.squashedStores        29710                       # Number of stores squashed
system.cpu01.iew.memOrderViolationEvents            8                       # Number of memory order violations
system.cpu01.iew.predictedNotTakenIncorrect          239                       # Number of branches that were predicted not taken incorrectly
system.cpu01.iew.predictedTakenIncorrect            7                       # Number of branches that were predicted taken incorrectly
system.cpu01.iew.wb_consumers                  799984                       # num instructions consuming a value
system.cpu01.iew.wb_count                      819009                       # cumulative count of insts written-back
system.cpu01.iew.wb_fanout                   0.764778                       # average fanout of values written-back
system.cpu01.iew.wb_producers                  611810                       # num instructions producing a value
system.cpu01.iew.wb_rate                     0.171690                       # insts written-back per cycle
system.cpu01.iew.wb_sent                       819589                       # cumulative count of insts sent to commit
system.cpu01.int_regfile_reads                1117568                       # number of integer regfile reads
system.cpu01.int_regfile_writes                553078                       # number of integer regfile writes
system.cpu01.ipc                             0.058456                       # IPC: Instructions Per Cycle
system.cpu01.ipc_total                       0.058456                       # IPC: Total IPC of All Threads
system.cpu01.iq.FU_type_0::No_OpClass             140      0.02%      0.02% # Type of FU issued
system.cpu01.iq.FU_type_0::IntAlu              503959     59.62%     59.64% # Type of FU issued
system.cpu01.iq.FU_type_0::IntMult               9694      1.15%     60.78% # Type of FU issued
system.cpu01.iq.FU_type_0::IntDiv                   7      0.00%     60.79% # Type of FU issued
system.cpu01.iq.FU_type_0::FloatAdd             32034      3.79%     64.57% # Type of FU issued
system.cpu01.iq.FU_type_0::FloatCmp                 0      0.00%     64.57% # Type of FU issued
system.cpu01.iq.FU_type_0::FloatCvt                 0      0.00%     64.57% # Type of FU issued
system.cpu01.iq.FU_type_0::FloatMult                0      0.00%     64.57% # Type of FU issued
system.cpu01.iq.FU_type_0::FloatMultAcc             0      0.00%     64.57% # Type of FU issued
system.cpu01.iq.FU_type_0::FloatDiv                 0      0.00%     64.57% # Type of FU issued
system.cpu01.iq.FU_type_0::FloatMisc                0      0.00%     64.57% # Type of FU issued
system.cpu01.iq.FU_type_0::FloatSqrt                0      0.00%     64.57% # Type of FU issued
system.cpu01.iq.FU_type_0::SimdAdd                  0      0.00%     64.57% # Type of FU issued
system.cpu01.iq.FU_type_0::SimdAddAcc               0      0.00%     64.57% # Type of FU issued
system.cpu01.iq.FU_type_0::SimdAlu              44380      5.25%     69.83% # Type of FU issued
system.cpu01.iq.FU_type_0::SimdCmp                  0      0.00%     69.83% # Type of FU issued
system.cpu01.iq.FU_type_0::SimdCvt                  0      0.00%     69.83% # Type of FU issued
system.cpu01.iq.FU_type_0::SimdMisc                 0      0.00%     69.83% # Type of FU issued
system.cpu01.iq.FU_type_0::SimdMult                 0      0.00%     69.83% # Type of FU issued
system.cpu01.iq.FU_type_0::SimdMultAcc              0      0.00%     69.83% # Type of FU issued
system.cpu01.iq.FU_type_0::SimdShift                0      0.00%     69.83% # Type of FU issued
system.cpu01.iq.FU_type_0::SimdShiftAcc             0      0.00%     69.83% # Type of FU issued
system.cpu01.iq.FU_type_0::SimdDiv                  0      0.00%     69.83% # Type of FU issued
system.cpu01.iq.FU_type_0::SimdSqrt                 0      0.00%     69.83% # Type of FU issued
system.cpu01.iq.FU_type_0::SimdFloatAdd         22012      2.60%     72.43% # Type of FU issued
system.cpu01.iq.FU_type_0::SimdFloatAlu             0      0.00%     72.43% # Type of FU issued
system.cpu01.iq.FU_type_0::SimdFloatCmp             0      0.00%     72.43% # Type of FU issued
system.cpu01.iq.FU_type_0::SimdFloatCvt         15666      1.85%     74.28% # Type of FU issued
system.cpu01.iq.FU_type_0::SimdFloatDiv             0      0.00%     74.28% # Type of FU issued
system.cpu01.iq.FU_type_0::SimdFloatMisc            0      0.00%     74.28% # Type of FU issued
system.cpu01.iq.FU_type_0::SimdFloatMult            0      0.00%     74.28% # Type of FU issued
system.cpu01.iq.FU_type_0::SimdFloatMultAcc            0      0.00%     74.28% # Type of FU issued
system.cpu01.iq.FU_type_0::SimdFloatSqrt            0      0.00%     74.28% # Type of FU issued
system.cpu01.iq.FU_type_0::SimdReduceAdd            0      0.00%     74.28% # Type of FU issued
system.cpu01.iq.FU_type_0::SimdReduceAlu            0      0.00%     74.28% # Type of FU issued
system.cpu01.iq.FU_type_0::SimdReduceCmp            0      0.00%     74.28% # Type of FU issued
system.cpu01.iq.FU_type_0::SimdFloatReduceAdd            0      0.00%     74.28% # Type of FU issued
system.cpu01.iq.FU_type_0::SimdFloatReduceCmp            0      0.00%     74.28% # Type of FU issued
system.cpu01.iq.FU_type_0::SimdAes                  0      0.00%     74.28% # Type of FU issued
system.cpu01.iq.FU_type_0::SimdAesMix               0      0.00%     74.28% # Type of FU issued
system.cpu01.iq.FU_type_0::SimdSha1Hash             0      0.00%     74.28% # Type of FU issued
system.cpu01.iq.FU_type_0::SimdSha1Hash2            0      0.00%     74.28% # Type of FU issued
system.cpu01.iq.FU_type_0::SimdSha256Hash            0      0.00%     74.28% # Type of FU issued
system.cpu01.iq.FU_type_0::SimdSha256Hash2            0      0.00%     74.28% # Type of FU issued
system.cpu01.iq.FU_type_0::SimdShaSigma2            0      0.00%     74.28% # Type of FU issued
system.cpu01.iq.FU_type_0::SimdShaSigma3            0      0.00%     74.28% # Type of FU issued
system.cpu01.iq.FU_type_0::SimdPredAlu              0      0.00%     74.28% # Type of FU issued
system.cpu01.iq.FU_type_0::MemRead             115808     13.70%     87.98% # Type of FU issued
system.cpu01.iq.FU_type_0::MemWrite             19463      2.30%     90.29% # Type of FU issued
system.cpu01.iq.FU_type_0::FloatMemRead         69512      8.22%     98.51% # Type of FU issued
system.cpu01.iq.FU_type_0::FloatMemWrite        12598      1.49%    100.00% # Type of FU issued
system.cpu01.iq.FU_type_0::IprAccess                0      0.00%    100.00% # Type of FU issued
system.cpu01.iq.FU_type_0::InstPrefetch             0      0.00%    100.00% # Type of FU issued
system.cpu01.iq.FU_type_0::total               845273                       # Type of FU issued
system.cpu01.iq.fp_alu_accesses                196209                       # Number of floating point alu accesses
system.cpu01.iq.fp_inst_queue_reads            392411                       # Number of floating instruction queue reads
system.cpu01.iq.fp_inst_queue_wakeup_accesses       170891                       # Number of floating instruction queue wakeup accesses
system.cpu01.iq.fp_inst_queue_writes           388681                       # Number of floating instruction queue writes
system.cpu01.iq.fu_busy_cnt                       234                       # FU busy when requested
system.cpu01.iq.fu_busy_rate                 0.000277                       # FU busy rate (busy events/executed inst)
system.cpu01.iq.fu_full::No_OpClass                 0      0.00%      0.00% # attempts to use FU when none available
system.cpu01.iq.fu_full::IntAlu                   211     90.17%     90.17% # attempts to use FU when none available
system.cpu01.iq.fu_full::IntMult                    0      0.00%     90.17% # attempts to use FU when none available
system.cpu01.iq.fu_full::IntDiv                     0      0.00%     90.17% # attempts to use FU when none available
system.cpu01.iq.fu_full::FloatAdd                   0      0.00%     90.17% # attempts to use FU when none available
system.cpu01.iq.fu_full::FloatCmp                   0      0.00%     90.17% # attempts to use FU when none available
system.cpu01.iq.fu_full::FloatCvt                   0      0.00%     90.17% # attempts to use FU when none available
system.cpu01.iq.fu_full::FloatMult                  0      0.00%     90.17% # attempts to use FU when none available
system.cpu01.iq.fu_full::FloatMultAcc               0      0.00%     90.17% # attempts to use FU when none available
system.cpu01.iq.fu_full::FloatDiv                   0      0.00%     90.17% # attempts to use FU when none available
system.cpu01.iq.fu_full::FloatMisc                  0      0.00%     90.17% # attempts to use FU when none available
system.cpu01.iq.fu_full::FloatSqrt                  0      0.00%     90.17% # attempts to use FU when none available
system.cpu01.iq.fu_full::SimdAdd                    0      0.00%     90.17% # attempts to use FU when none available
system.cpu01.iq.fu_full::SimdAddAcc                 0      0.00%     90.17% # attempts to use FU when none available
system.cpu01.iq.fu_full::SimdAlu                    0      0.00%     90.17% # attempts to use FU when none available
system.cpu01.iq.fu_full::SimdCmp                    0      0.00%     90.17% # attempts to use FU when none available
system.cpu01.iq.fu_full::SimdCvt                    0      0.00%     90.17% # attempts to use FU when none available
system.cpu01.iq.fu_full::SimdMisc                   0      0.00%     90.17% # attempts to use FU when none available
system.cpu01.iq.fu_full::SimdMult                   0      0.00%     90.17% # attempts to use FU when none available
system.cpu01.iq.fu_full::SimdMultAcc                0      0.00%     90.17% # attempts to use FU when none available
system.cpu01.iq.fu_full::SimdShift                  0      0.00%     90.17% # attempts to use FU when none available
system.cpu01.iq.fu_full::SimdShiftAcc               0      0.00%     90.17% # attempts to use FU when none available
system.cpu01.iq.fu_full::SimdDiv                    0      0.00%     90.17% # attempts to use FU when none available
system.cpu01.iq.fu_full::SimdSqrt                   0      0.00%     90.17% # attempts to use FU when none available
system.cpu01.iq.fu_full::SimdFloatAdd               0      0.00%     90.17% # attempts to use FU when none available
system.cpu01.iq.fu_full::SimdFloatAlu               0      0.00%     90.17% # attempts to use FU when none available
system.cpu01.iq.fu_full::SimdFloatCmp               0      0.00%     90.17% # attempts to use FU when none available
system.cpu01.iq.fu_full::SimdFloatCvt               0      0.00%     90.17% # attempts to use FU when none available
system.cpu01.iq.fu_full::SimdFloatDiv               0      0.00%     90.17% # attempts to use FU when none available
system.cpu01.iq.fu_full::SimdFloatMisc              0      0.00%     90.17% # attempts to use FU when none available
system.cpu01.iq.fu_full::SimdFloatMult              0      0.00%     90.17% # attempts to use FU when none available
system.cpu01.iq.fu_full::SimdFloatMultAcc            0      0.00%     90.17% # attempts to use FU when none available
system.cpu01.iq.fu_full::SimdFloatSqrt              0      0.00%     90.17% # attempts to use FU when none available
system.cpu01.iq.fu_full::SimdReduceAdd              0      0.00%     90.17% # attempts to use FU when none available
system.cpu01.iq.fu_full::SimdReduceAlu              0      0.00%     90.17% # attempts to use FU when none available
system.cpu01.iq.fu_full::SimdReduceCmp              0      0.00%     90.17% # attempts to use FU when none available
system.cpu01.iq.fu_full::SimdFloatReduceAdd            0      0.00%     90.17% # attempts to use FU when none available
system.cpu01.iq.fu_full::SimdFloatReduceCmp            0      0.00%     90.17% # attempts to use FU when none available
system.cpu01.iq.fu_full::SimdAes                    0      0.00%     90.17% # attempts to use FU when none available
system.cpu01.iq.fu_full::SimdAesMix                 0      0.00%     90.17% # attempts to use FU when none available
system.cpu01.iq.fu_full::SimdSha1Hash               0      0.00%     90.17% # attempts to use FU when none available
system.cpu01.iq.fu_full::SimdSha1Hash2              0      0.00%     90.17% # attempts to use FU when none available
system.cpu01.iq.fu_full::SimdSha256Hash             0      0.00%     90.17% # attempts to use FU when none available
system.cpu01.iq.fu_full::SimdSha256Hash2            0      0.00%     90.17% # attempts to use FU when none available
system.cpu01.iq.fu_full::SimdShaSigma2              0      0.00%     90.17% # attempts to use FU when none available
system.cpu01.iq.fu_full::SimdShaSigma3              0      0.00%     90.17% # attempts to use FU when none available
system.cpu01.iq.fu_full::SimdPredAlu                0      0.00%     90.17% # attempts to use FU when none available
system.cpu01.iq.fu_full::MemRead                   10      4.27%     94.44% # attempts to use FU when none available
system.cpu01.iq.fu_full::MemWrite                   6      2.56%     97.01% # attempts to use FU when none available
system.cpu01.iq.fu_full::FloatMemRead               3      1.28%     98.29% # attempts to use FU when none available
system.cpu01.iq.fu_full::FloatMemWrite              4      1.71%    100.00% # attempts to use FU when none available
system.cpu01.iq.fu_full::IprAccess                  0      0.00%    100.00% # attempts to use FU when none available
system.cpu01.iq.fu_full::InstPrefetch               0      0.00%    100.00% # attempts to use FU when none available
system.cpu01.iq.int_alu_accesses               649158                       # Number of integer alu accesses
system.cpu01.iq.int_inst_queue_reads          6065940                       # Number of integer instruction queue reads
system.cpu01.iq.int_inst_queue_wakeup_accesses       648118                       # Number of integer instruction queue wakeup accesses
system.cpu01.iq.int_inst_queue_writes          921708                       # Number of integer instruction queue writes
system.cpu01.iq.iqInstsAdded                   876133                       # Number of instructions added to the IQ (excludes non-spec)
system.cpu01.iq.iqInstsIssued                  845273                       # Number of instructions issued
[...]
system.mem_ctrls.rdQLenPdf::4                     188                       # What read queue length does an incoming req see
system.mem_ctrls.rdQLenPdf::5                     185                       # What read queue length does an incoming req see
system.mem_ctrls.rdQLenPdf::6                     174                       # What read queue length does an incoming req see
system.mem_ctrls.rdQLenPdf::7                     166                       # What read queue length does an incoming req see
system.mem_ctrls.rdQLenPdf::8                      38                       # What read queue length does an incoming req see
system.mem_ctrls.rdQLenPdf::9                      37                       # What read queue length does an incoming req see
system.mem_ctrls.rdQLenPdf::10                     32                       # What read queue length does an incoming req see
system.mem_ctrls.rdQLenPdf::11                     32                       # What read queue length does an incoming req see
system.mem_ctrls.rdQLenPdf::12                      6                       # What read queue length does an incoming req see
system.mem_ctrls.rdQLenPdf::13                      5                       # What read queue length does an incoming req see
system.mem_ctrls.rdQLenPdf::14                      5                       # What read queue length does an incoming req see
system.mem_ctrls.rdQLenPdf::15                      4                       # What read queue length does an incoming req see
system.mem_ctrls.rdQLenPdf::16                      1                       # What read queue length does an incoming req see
system.mem_ctrls.rdQLenPdf::17                      1                       # What read queue length does an incoming req see
system.mem_ctrls.rdQLenPdf::18                      1                       # What read queue length does an incoming req see
system.mem_ctrls.rdQLenPdf::19                      1                       # What read queue length does an incoming req see
system.mem_ctrls.rdQLenPdf::20                      0                       # What read queue length does an incoming req see
system.mem_ctrls.rdQLenPdf::21                      0                       # What read queue length does an incoming req see
system.mem_ctrls.rdQLenPdf::22                      0                       # What read queue length does an incoming req see
system.mem_ctrls.rdQLenPdf::23                      0                       # What read queue length does an incoming req see
system.mem_ctrls.rdQLenPdf::24                      0                       # What read queue length does an incoming req see
system.mem_ctrls.rdQLenPdf::25                      0                       # What read queue length does an incoming req see
system.mem_ctrls.rdQLenPdf::26                      0                       # What read queue length does an incoming req see
system.mem_ctrls.rdQLenPdf::27                      0                       # What read queue length does an incoming req see
system.mem_ctrls.rdQLenPdf::28                      0                       # What read queue length does an incoming req see
system.mem_ctrls.rdQLenPdf::29                      0                       # What read queue length does an incoming req see
system.mem_ctrls.rdQLenPdf::30                      0                       # What read queue length does an incoming req see
system.mem_ctrls.rdQLenPdf::31                      0                       # What read queue length does an incoming req see
system.mem_ctrls.wrQLenPdf::0                       0                       # What write queue length does an incoming req see
system.mem_ctrls.wrQLenPdf::1                       0                       # What write queue length does an incoming req see
system.mem_ctrls.wrQLenPdf::2                       0                       # What write queue length does an incoming req see
system.mem_ctrls.wrQLenPdf::3                       0                       # What write queue length does an incoming req see
system.mem_ctrls.wrQLenPdf::4                       0                       # What write queue length does an incoming req see
system.mem_ctrls.wrQLenPdf::5                       0                       # What write queue length does an incoming req see
system.mem_ctrls.wrQLenPdf::6                       0                       # What write queue length does an incoming req see
system.mem_ctrls.wrQLenPdf::7                       0                       # What write queue length does an incoming req see
system.mem_ctrls.wrQLenPdf::8                       0                       # What write queue length does an incoming req see
system.mem_ctrls.wrQLenPdf::9                       0                       # What write queue length does an incoming req see
system.mem_ctrls.wrQLenPdf::10                      0                       # What write queue length does an incoming req see
system.mem_ctrls.wrQLenPdf::11                      0                       # What write queue length does an incoming req see
system.mem_ctrls.wrQLenPdf::12                      0                       # What write queue length does an incoming req see
system.mem_ctrls.wrQLenPdf::13                      0                       # What write queue length does an incoming req see
system.mem_ctrls.wrQLenPdf::14                      0                       # What write queue length does an incoming req see
system.mem_ctrls.wrQLenPdf::15                      0                       # What write queue length does an incoming req see
system.mem_ctrls.wrQLenPdf::16                      0                       # What write queue length does an incoming req see
system.mem_ctrls.wrQLenPdf::17                      0                       # What write queue length does an incoming req see
system.mem_ctrls.wrQLenPdf::18                      0                       # What write queue length does an incoming req see
system.mem_ctrls.wrQLenPdf::19                      0                       # What write queue length does an incoming req see
system.mem_ctrls.wrQLenPdf::20                      0                       # What write queue length does an incoming req see
system.mem_ctrls.wrQLenPdf::21                      0                       # What write queue length does an incoming req see
system.mem_ctrls.wrQLenPdf::22                      0                       # What write queue length does an incoming req see
system.mem_ctrls.wrQLenPdf::23                      0                       # What write queue length does an incoming req see
system.mem_ctrls.wrQLenPdf::24                      0                       # What write queue length does an incoming req see
system.mem_ctrls.wrQLenPdf::25                      0                       # What write queue length does an incoming req see
system.mem_ctrls.wrQLenPdf::26                      0                       # What write queue length does an incoming req see
system.mem_ctrls.wrQLenPdf::27                      0                       # What write queue length does an incoming req see
system.mem_ctrls.wrQLenPdf::28                      0                       # What write queue length does an incoming req see
system.mem_ctrls.wrQLenPdf::29                      0                       # What write queue length does an incoming req see
system.mem_ctrls.wrQLenPdf::30                      0                       # What write queue length does an incoming req see
system.mem_ctrls.wrQLenPdf::31                      0                       # What write queue length does an incoming req see
system.mem_ctrls.wrQLenPdf::32                      0                       # What write queue length does an incoming req see
system.mem_ctrls.wrQLenPdf::33                      0                       # What write queue length does an incoming req see
system.mem_ctrls.wrQLenPdf::34                      0                       # What write queue length does an incoming req see
system.mem_ctrls.wrQLenPdf::35                      0                       # What write queue length does an incoming req see
system.mem_ctrls.wrQLenPdf::36                      0                       # What write queue length does an incoming req see
system.mem_ctrls.wrQLenPdf::37                      0                       # What write queue length does an incoming req see
system.mem_ctrls.wrQLenPdf::38                      0                       # What write queue length does an incoming req see
system.mem_ctrls.wrQLenPdf::39                      0                       # What write queue length does an incoming req see
system.mem_ctrls.wrQLenPdf::40                      0                       # What write queue length does an incoming req see
system.mem_ctrls.wrQLenPdf::41                      0                       # What write queue length does an incoming req see
system.mem_ctrls.wrQLenPdf::42                      0                       # What write queue length does an incoming req see
system.mem_ctrls.wrQLenPdf::43                      0                       # What write queue length does an incoming req see
system.mem_ctrls.wrQLenPdf::44                      0                       # What write queue length does an incoming req see
system.mem_ctrls.wrQLenPdf::45                      0                       # What write queue length does an incoming req see
system.mem_ctrls.wrQLenPdf::46                      0                       # What write queue length does an incoming req see
system.mem_ctrls.wrQLenPdf::47                      0                       # What write queue length does an incoming req see
system.mem_ctrls.wrQLenPdf::48                      0                       # What write queue length does an incoming req see
system.mem_ctrls.wrQLenPdf::49                      0                       # What write queue length does an incoming req see
system.mem_ctrls.wrQLenPdf::50                      0                       # What write queue length does an incoming req see
system.mem_ctrls.wrQLenPdf::51                      0                       # What write queue length does an incoming req see
system.mem_ctrls.wrQLenPdf::52                      0                       # What write queue length does an incoming req see
system.mem_ctrls.wrQLenPdf::53                      0                       # What write queue length does an incoming req see
system.mem_ctrls.wrQLenPdf::54                      0                       # What write queue length does an incoming req see
system.mem_ctrls.wrQLenPdf::55                      0                       # What write queue length does an incoming req see
system.mem_ctrls.wrQLenPdf::56                      0                       # What write queue length does an incoming req see
system.mem_ctrls.wrQLenPdf::57                      0                       # What write queue length does an incoming req see
system.mem_ctrls.wrQLenPdf::58                      0                       # What write queue length does an incoming req see
system.mem_ctrls.wrQLenPdf::59                      0                       # What write queue length does an incoming req see
system.mem_ctrls.wrQLenPdf::60                      0                       # What write queue length does an incoming req see
system.mem_ctrls.wrQLenPdf::61                      0                       # What write queue length does an incoming req see
system.mem_ctrls.wrQLenPdf::62                      0                       # What write queue length does an incoming req see
system.mem_ctrls.wrQLenPdf::63                      0                       # What write queue length does an incoming req see
system.mem_ctrls.bytesPerActivate::samples          424                       # Bytes accessed per row activation
system.mem_ctrls.bytesPerActivate::mean    494.490566                       # Bytes accessed per row activation
system.mem_ctrls.bytesPerActivate::gmean   421.089597                       # Bytes accessed per row activation
system.mem_ctrls.bytesPerActivate::stdev   291.451061                       # Bytes accessed per row activation
system.mem_ctrls.bytesPerActivate::128-255            3      0.71%      0.71% # Bytes accessed per row activation
system.mem_ctrls.bytesPerActivate::256-383          210     49.53%     50.24% # Bytes accessed per row activation
system.mem_ctrls.bytesPerActivate::512-639          101     23.82%     74.06% # Bytes accessed per row activation
system.mem_ctrls.bytesPerActivate::640-767            1      0.24%     74.29% # Bytes accessed per row activation
system.mem_ctrls.bytesPerActivate::768-895           34      8.02%     82.31% # Bytes accessed per row activation
system.mem_ctrls.bytesPerActivate::1024-1151           75     17.69%    100.00% # Bytes accessed per row activation
system.mem_ctrls.bytesPerActivate::total          424                       # Bytes accessed per row activation
system.mem_ctrls.bytesReadDRAM                 213504                       # Total number of bytes read from DRAM
system.mem_ctrls.bytesReadWrQ                       0                       # Total number of bytes read from write queue
system.mem_ctrls.bytesWritten                       0                       # Total number of bytes written to DRAM
system.mem_ctrls.bytesReadSys                  213504                       # Total read bytes from the system interface side
system.mem_ctrls.bytesWrittenSys                    0                       # Total written bytes from the system interface side
system.mem_ctrls.avgRdBW                        87.07                       # Average DRAM read bandwidth in MiByte/s
system.mem_ctrls.avgWrBW                         0.00                       # Average achieved write bandwidth in MiByte/s
system.mem_ctrls.avgRdBWSys                     87.07                       # Average system read bandwidth in MiByte/s
system.mem_ctrls.avgWrBWSys                      0.00                       # Average system write bandwidth in MiByte/s
system.mem_ctrls.peakBW                      12800.00                       # Theoretical peak bandwidth in MiByte/s
system.mem_ctrls.busUtil                         0.68                       # Data bus utilization in percentage
system.mem_ctrls.busUtilRead                     0.68                       # Data bus utilization in percentage for reads
system.mem_ctrls.busUtilWrite                    0.00                       # Data bus utilization in percentage for writes
system.mem_ctrls.totGap                    2451951000                       # Total gap between requests
system.mem_ctrls.avgGap                    2939989.21                       # Average gap between requests
system.mem_ctrls.masterReadBytes::.ruby.dir_cntrl0       213504                       # Per-master bytes read from memory
system.mem_ctrls.masterReadRate::.ruby.dir_cntrl0 87073143.128640502691                       # Per-master bytes read from memory rate (Bytes/sec)
system.mem_ctrls.masterReadAccesses::.ruby.dir_cntrl0         3336                       # Per-master read serviced memory accesses
system.mem_ctrls.masterReadTotalLat::.ruby.dir_cntrl0    146958234                       # Per-master read total memory access latency
system.mem_ctrls.masterReadAvgLat::.ruby.dir_cntrl0     44052.23                       # Per-master read average memory access latency
system.mem_ctrls.pageHitRate                    86.99                       # Row buffer hit rate, read and write combined
system.mem_ctrls.rank1.actEnergy              1270920                       # Energy for activate commands per rank (pJ)
system.mem_ctrls.rank1.preEnergy               664125                       # Energy for precharge commands per rank (pJ)
system.mem_ctrls.rank1.readEnergy             9331980                       # Energy for read commands per rank (pJ)
system.mem_ctrls.rank1.writeEnergy                  0                       # Energy for write commands per rank (pJ)
system.mem_ctrls.rank1.refreshEnergy     192996960.000000                       # Energy for refresh commands per rank (pJ)
system.mem_ctrls.rank1.actBackEnergy         71764140                       # Energy for active background per rank (pJ)
system.mem_ctrls.rank1.preBackEnergy        881137920                       # Energy for precharge background per rank (pJ)
system.mem_ctrls.rank1.actPowerDownEnergy            0                       # Energy for active power-down per rank (pJ)
system.mem_ctrls.rank1.prePowerDownEnergy            0                       # Energy for precharge power-down per rank (pJ)
system.mem_ctrls.rank1.selfRefreshEnergy            0                       # Energy for self refresh per rank (pJ)
system.mem_ctrls.rank1.totalEnergy         1157166045                       # Total energy per rank (pJ)
system.mem_ctrls.rank1.averagePower        471.925981                       # Core power per rank (mW)
system.mem_ctrls.rank1.totalIdleTime                0                       # Total Idle time Per DRAM Rank
system.mem_ctrls.rank1.memoryStateTime::IDLE   2290089250                       # Time in different power states
system.mem_ctrls.rank1.memoryStateTime::REF     81640000                       # Time in different power states
system.mem_ctrls.rank1.memoryStateTime::SREF            0                       # Time in different power states
system.mem_ctrls.rank1.memoryStateTime::PRE_PDN            0                       # Time in different power states
system.mem_ctrls.rank1.memoryStateTime::ACT     80278250                       # Time in different power states
system.mem_ctrls.rank1.memoryStateTime::ACT_PDN            0                       # Time in different power states
system.mem_ctrls.rank0.actEnergy              1827840                       # Energy for activate commands per rank (pJ)
system.mem_ctrls.rank0.preEnergy               944955                       # Energy for precharge commands per rank (pJ)
system.mem_ctrls.rank0.readEnergy            14479920                       # Energy for read commands per rank (pJ)
system.mem_ctrls.rank0.writeEnergy                  0                       # Energy for write commands per rank (pJ)
system.mem_ctrls.rank0.refreshEnergy     192996960.000000                       # Energy for refresh commands per rank (pJ)
system.mem_ctrls.rank0.actBackEnergy         77433930                       # Energy for active background per rank (pJ)
system.mem_ctrls.rank0.preBackEnergy        876363360                       # Energy for precharge background per rank (pJ)
system.mem_ctrls.rank0.actPowerDownEnergy            0                       # Energy for active power-down per rank (pJ)
system.mem_ctrls.rank0.prePowerDownEnergy            0                       # Energy for precharge power-down per rank (pJ)
system.mem_ctrls.rank0.selfRefreshEnergy            0                       # Energy for self refresh per rank (pJ)
system.mem_ctrls.rank0.totalEnergy         1164046965                       # Total energy per rank (pJ)
system.mem_ctrls.rank0.averagePower        474.732220                       # Core power per rank (mW)
system.mem_ctrls.rank0.totalIdleTime                0                       # Total Idle time Per DRAM Rank
system.mem_ctrls.rank0.memoryStateTime::IDLE   2277640500                       # Time in different power states
system.mem_ctrls.rank0.memoryStateTime::REF     81640000                       # Time in different power states
system.mem_ctrls.rank0.memoryStateTime::SREF            0                       # Time in different power states
system.mem_ctrls.rank0.memoryStateTime::PRE_PDN            0                       # Time in different power states
system.mem_ctrls.rank0.memoryStateTime::ACT     92727000                       # Time in different power states
system.mem_ctrls.rank0.memoryStateTime::ACT_PDN            0                       # Time in different power states

---------- End Simulation Statistics   ----------
